@<TRIPOS>MOLECULE
[5-[4-[3-chloro-4-[(3-fluorophenyl)methoxy]anilino]quinazolin-6-yl]-2-furyl]methyl-(2-methylsulfonylethyl)ammonium
   67    71     1     0     0
SMALL
USER_CHARGES

@<TRIPOS>ATOM
      1 C1         22.6040   34.4870   31.1410 C.3       1 FMM        -0.4050
      2 S2         24.0360   33.4650   31.3500 S.o2      1 FMM         1.3591
      3 O3         25.0530   34.2040   32.0670 O.2       1 FMM        -0.6193
      4 O4         24.5430   33.0770   30.0530 O.2       1 FMM        -0.6193
      5 C5         23.5870   31.9800   32.2910 C.3       1 FMM        -0.3419
      6 C6         22.0610   31.8360   32.3240 C.3       1 FMM         0.1446
      7 N7         21.5690   32.1840   33.6650 N.4       1 FMM        -0.7650
      8 C8         20.9140   31.0190   34.2650 C.3       1 FMM         0.1085
      9 C9         19.4160   31.2080   34.2230 C.ar      1 FMM         0.0843
     10 C10        18.6740   30.9770   33.1210 C.ar      1 FMM        -0.1623
     11 C11        17.4450   31.2370   33.4210 C.ar      1 FMM        -0.2754
     12 C12        17.4090   31.6450   34.7310 C.ar      1 FMM         0.4055
     13 O13        18.6550   31.6530   35.3630 O.3       1 FMM        -0.3450
     14 C14        16.1760   32.0580   35.4070 C.ar      1 FMM        -0.2027
     15 C15        14.9580   31.9860   34.7350 C.ar      1 FMM        -0.0781
     16 C16        13.8070   32.4020   35.3590 C.ar      1 FMM        -0.1741
     17 C17        13.8490   32.8900   36.6640 C.ar      1 FMM         0.4607
     18 N18        12.6830   33.3050   37.2760 N.ar      1 FMM        -0.7032
     19 C19        12.7080   33.7900   38.5680 C.ar      1 FMM         0.6881
     20 N20        13.8990   33.8630   39.2600 N.ar      1 FMM        -0.7328
     21 C21        15.0770   33.4520   38.6680 C.ar      1 FMM         0.7001
     22 N22        16.2820   33.5270   39.3660 N.pl3     1 FMM        -0.7382
     23 C23        16.3320   33.8430   40.7350 C.ar      1 FMM         0.1311
     24 C24        17.1180   34.9090   41.1780 C.ar      1 FMM        -0.1133
     25 C25        17.1640   35.2150   42.5350 C.ar      1 FMM        -0.1339
     26 C26        16.4280   34.4570   43.4380 C.ar      1 FMM         0.0973
     27 O27        16.4460   34.7470   44.8280 O.3       1 FMM        -0.3175
     28 C28        17.0650   36.0020   45.1430 C.3       1 FMM         0.1755
     29 C29        16.0850   37.1810   44.9840 C.ar      1 FMM        -0.0740
     30 C30        16.5190   38.4620   45.2460 C.ar      1 FMM        -0.1184
     31 C31        15.6530   39.5270   45.1020 C.ar      1 FMM        -0.1080
     32 C32        14.3540   39.3120   44.6930 C.ar      1 FMM        -0.1502
     33 C33        13.9160   38.0360   44.4290 C.ar      1 FMM         0.1231
     34 F34        12.6790   37.8370   44.0350 F         1 FMM        -0.1373
     35 C35        14.7720   36.9660   44.5730 C.ar      1 FMM        -0.1423
     36 C36        15.6650   33.4150   42.9990 C.ar      1 FMM         0.0284
     37 CL3        14.7840   32.5140   44.1280 Cl        1 FMM        -0.0587
     38 C38        15.6070   33.0980   41.6600 C.ar      1 FMM        -0.1604
     39 C39        15.0530   32.9590   37.3490 C.ar      1 FMM        -0.3010
     40 C40        16.2200   32.5450   36.7310 C.ar      1 FMM        -0.0258
     41 H11A       21.8300   33.9266   30.5961 H         1 FMM         0.1367
     42 H12        22.8759   35.3868   30.5696 H         1 FMM         0.1367
     43 H13        22.2170   34.7821   32.1275 H         1 FMM         0.1367
     44 H51        24.0280   31.0942   31.8105 H         1 FMM         0.1269
     45 H52        23.9688   32.0679   33.3189 H         1 FMM         0.1269
     46 H61        21.6128   32.5116   31.5805 H         1 FMM         0.1163
     47 H62        21.7855   30.7974   32.0888 H         1 FMM         0.1163
     48 HN7        22.4145   32.4940   34.2967 H         1 FMM         0.4526
     49 H81        21.1859   30.1146   33.7010 H         1 FMM         0.1224
     50 H82        21.2414   30.9119   35.3097 H         1 FMM         0.1224
     51 H10        19.0180   30.6310   32.1320 H         1 FMM         0.1696
     52 H11        16.6070   31.1330   32.7120 H         1 FMM         0.1899
     53 H15        14.9050   31.5980   33.7040 H         1 FMM         0.1424
     54 H16        12.8500   32.3440   34.8130 H         1 FMM         0.1696
     55 H19        11.7720   34.1210   39.0500 H         1 FMM         0.0710
     56 H22        17.2320   33.3361   38.8454 H         1 FMM         0.4341
     57 H24        17.7010   35.5080   40.4580 H         1 FMM         0.1522
     58 H25        17.7820   36.0560   42.8940 H         1 FMM         0.1539
     59 H281       17.4183   35.9854   46.1846 H         1 FMM         0.0449
     60 H282       17.9181   36.1695   44.4691 H         1 FMM         0.0449
     61 H30        17.5590   38.6350   45.5710 H         1 FMM         0.1402
     62 H31        16.0000   40.5520   45.3140 H         1 FMM         0.1419
     63 H32        13.6630   40.1640   44.5770 H         1 FMM         0.1536
     64 H35        14.4090   35.9460   44.3610 H         1 FMM         0.1509
     65 H38        14.9830   32.2510   41.3300 H         1 FMM         0.1455
     66 H40        17.1720   32.6020   37.2860 H         1 FMM         0.1454
     67 H67        20.8469   33.0102   33.5877 H         1 FMM         0.4526
@<TRIPOS>BOND
     1    1    2 1
     2    1   41 1
     3    1   42 1
     4    1   43 1
     5    2    3 2
     6    2    4 2
     7    2    5 1
     8    5    6 1
     9    5   44 1
    10    5   45 1
    11    6    7 1
    12    6   46 1
    13    6   47 1
    14    7    8 1
    15    7   48 1
    16    7   67 1
    17    8    9 1
    18    8   49 1
    19    8   50 1
    20    9   10 ar
    21    9   13 ar
    22   10   11 ar
    23   10   51 1
    24   11   12 ar
    25   11   52 1
    26   12   13 ar
    27   12   14 1
    28   14   15 ar
    29   14   40 ar
    30   15   16 ar
    31   15   53 1
    32   16   17 ar
    33   16   54 1
    34   17   18 ar
    35   17   39 ar
    36   18   19 ar
    37   19   20 ar
    38   19   55 1
    39   20   21 ar
    40   21   22 1
    41   21   39 ar
    42   22   23 1
    43   22   56 1
    44   23   24 ar
    45   23   38 ar
    46   24   25 ar
    47   24   57 1
    48   25   26 ar
    49   25   58 1
    50   26   27 1
    51   26   36 ar
    52   27   28 1
    53   28   29 1
    54   28   59 1
    55   28   60 1
    56   29   30 ar
    57   29   35 ar
    58   30   31 ar
    59   30   61 1
    60   31   32 ar
    61   31   62 1
    62   32   33 ar
    63   32   63 1
    64   33   34 1
    65   33   35 ar
    66   35   64 1
    67   36   37 1
    68   36   38 ar
    69   38   65 1
    70   39   40 ar
    71   40   66 1
@<TRIPOS>SUBSTRUCTURE
     1 FMM         1 GROUP   0 A     ****
@<TRIPOS>MOLECULE
~{N}-[3-chloro-4-[(3-fluorophenyl)methoxy]phenyl]-6-[5-[(2-methylsulfonylethylamino)methyl]-2-furyl]quinazolin-4-amine
   66    70     1     0     0
SMALL
USER_CHARGES

@<TRIPOS>ATOM
      1 C1         22.6040   34.4870   31.1410 C.3       1 FMM        -0.3654
      2 S2         24.0360   33.4650   31.3500 S.o2      1 FMM         1.3337
      3 O3         25.0530   34.2040   32.0670 O.2       1 FMM        -0.6506
      4 O4         24.5430   33.0770   30.0530 O.2       1 FMM        -0.6506
      5 C5         23.5870   31.9800   32.2910 C.3       1 FMM        -0.3266
      6 C6         22.0610   31.8360   32.3240 C.3       1 FMM         0.1962
      7 N7         21.5690   32.1840   33.6650 N.3       1 FMM        -0.8223
      8 C8         20.9140   31.0190   34.2650 C.3       1 FMM         0.1365
      9 C9         19.4160   31.2080   34.2230 C.ar      1 FMM         0.2431
     10 C10        18.6740   30.9770   33.1210 C.ar      1 FMM        -0.2318
     11 C11        17.4450   31.2370   33.4210 C.ar      1 FMM        -0.2469
     12 C12        17.4090   31.6450   34.7310 C.ar      1 FMM         0.2977
     13 O13        18.6550   31.6530   35.3630 O.3       1 FMM        -0.3607
     14 C14        16.1760   32.0580   35.4070 C.ar      1 FMM        -0.1327
     15 C15        14.9580   31.9860   34.7350 C.ar      1 FMM        -0.0802
     16 C16        13.8070   32.4020   35.3590 C.ar      1 FMM        -0.1793
     17 C17        13.8490   32.8900   36.6640 C.ar      1 FMM         0.4395
     18 N18        12.6830   33.3050   37.2760 N.ar      1 FMM        -0.7067
     19 C19        12.7080   33.7900   38.5680 C.ar      1 FMM         0.6693
     20 N20        13.8990   33.8630   39.2600 N.ar      1 FMM        -0.7526
     21 C21        15.0770   33.4520   38.6680 C.ar      1 FMM         0.7101
     22 N22        16.2820   33.5270   39.3660 N.pl3     1 FMM        -0.7627
     23 C23        16.3320   33.8430   40.7350 C.ar      1 FMM         0.1663
     24 C24        17.1180   34.9090   41.1780 C.ar      1 FMM        -0.1655
     25 C25        17.1640   35.2150   42.5350 C.ar      1 FMM        -0.1275
     26 C26        16.4280   34.4570   43.4380 C.ar      1 FMM         0.0778
     27 O27        16.4460   34.7470   44.8280 O.3       1 FMM        -0.3219
     28 C28        17.0650   36.0020   45.1430 C.3       1 FMM         0.1742
     29 C29        16.0850   37.1810   44.9840 C.ar      1 FMM        -0.0675
     30 C30        16.5190   38.4620   45.2460 C.ar      1 FMM        -0.1216
     31 C31        15.6530   39.5270   45.1020 C.ar      1 FMM        -0.1100
     32 C32        14.3540   39.3120   44.6930 C.ar      1 FMM        -0.1559
     33 C33        13.9160   38.0360   44.4290 C.ar      1 FMM         0.1212
     34 F34        12.6790   37.8370   44.0350 F         1 FMM        -0.1406
     35 C35        14.7720   36.9660   44.5730 C.ar      1 FMM        -0.1394
     36 C36        15.6650   33.4150   42.9990 C.ar      1 FMM         0.0340
     37 CL3        14.7840   32.5140   44.1280 Cl        1 FMM        -0.0642
     38 C38        15.6070   33.0980   41.6600 C.ar      1 FMM        -0.1276
     39 C39        15.0530   32.9590   37.3490 C.ar      1 FMM        -0.2922
     40 C40        16.2200   32.5450   36.7310 C.ar      1 FMM        -0.0771
     41 H11A       21.8300   33.9266   30.5961 H         1 FMM         0.1186
     42 H12        22.8759   35.3868   30.5696 H         1 FMM         0.1186
     43 H13        22.2170   34.7821   32.1275 H         1 FMM         0.1186
     44 H51        24.0280   31.0942   31.8105 H         1 FMM         0.1154
     45 H52        23.9688   32.0679   33.3189 H         1 FMM         0.1154
     46 H61        21.6128   32.5116   31.5805 H         1 FMM         0.0523
     47 H62        21.7855   30.7974   32.0888 H         1 FMM         0.0523
     48 HN7        22.4145   32.4940   34.2967 H         1 FMM         0.3659
     49 H81        21.1859   30.1146   33.7010 H         1 FMM         0.0576
     50 H82        21.2414   30.9119   35.3097 H         1 FMM         0.0576
     51 H10        19.0180   30.6310   32.1320 H         1 FMM         0.1707
     52 H11        16.6070   31.1330   32.7120 H         1 FMM         0.1603
     53 H15        14.9050   31.5980   33.7040 H         1 FMM         0.1528
     54 H16        12.8500   32.3440   34.8130 H         1 FMM         0.1597
     55 H19        11.7720   34.1210   39.0500 H         1 FMM         0.0573
     56 H22        17.2320   33.3361   38.8454 H         1 FMM         0.4480
     57 H24        17.7010   35.5080   40.4580 H         1 FMM         0.1367
     58 H25        17.7820   36.0560   42.8940 H         1 FMM         0.1460
     59 H281       17.4183   35.9854   46.1846 H         1 FMM         0.0457
     60 H282       17.9181   36.1695   44.4691 H         1 FMM         0.0457
     61 H30        17.5590   38.6350   45.5710 H         1 FMM         0.1380
     62 H31        16.0000   40.5520   45.3140 H         1 FMM         0.1385
     63 H32        13.6630   40.1640   44.5770 H         1 FMM         0.1494
     64 H35        14.4090   35.9460   44.3610 H         1 FMM         0.1546
     65 H38        14.9830   32.2510   41.3300 H         1 FMM         0.1664
     66 H40        17.1720   32.6020   37.2860 H         1 FMM         0.1382
@<TRIPOS>BOND
     1    1    2 1
     2    1   41 1
     3    1   42 1
     4    1   43 1
     5    2    3 2
     6    2    4 2
     7    2    5 1
     8    5    6 1
     9    5   44 1
    10    5   45 1
    11    6    7 1
    12    6   46 1
    13    6   47 1
    14    7    8 1
    15    7   48 1
    16    8    9 1
    17    8   49 1
    18    8   50 1
    19    9   10 ar
    20    9   13 ar
    21   10   11 ar
    22   10   51 1
    23   11   12 ar
    24   11   52 1
    25   12   13 ar
    26   12   14 1
    27   14   15 ar
    28   14   40 ar
    29   15   16 ar
    30   15   53 1
    31   16   17 ar
    32   16   54 1
    33   17   18 ar
    34   17   39 ar
    35   18   19 ar
    36   19   20 ar
    37   19   55 1
    38   20   21 ar
    39   21   22 1
    40   21   39 ar
    41   22   23 1
    42   22   56 1
    43   23   24 ar
    44   23   38 ar
    45   24   25 ar
    46   24   57 1
    47   25   26 ar
    48   25   58 1
    49   26   27 1
    50   26   36 ar
    51   27   28 1
    52   28   29 1
    53   28   59 1
    54   28   60 1
    55   29   30 ar
    56   29   35 ar
    57   30   31 ar
    58   30   61 1
    59   31   32 ar
    60   31   62 1
    61   32   33 ar
    62   32   63 1
    63   33   34 1
    64   33   35 ar
    65   35   64 1
    66   36   37 1
    67   36   38 ar
    68   38   65 1
    69   39   40 ar
    70   40   66 1
@<TRIPOS>SUBSTRUCTURE
     1 FMM         1 GROUP   0 A     ****
@<TRIPOS>MOLECULE
[5-[4-[3-chloro-4-[(3-fluorophenyl)methoxy]anilino]-1,2-dihydroquinazolin-2-ylium-6-yl]-2-furyl]methyl-(2-methylsulfonylethyl)ammonium
   68    72     1     0     0
SMALL
USER_CHARGES

@<TRIPOS>ATOM
      1 C1         22.6040   34.4870   31.1410 C.3       1 FMM        -0.4073
      2 S2         24.0360   33.4650   31.3500 S.o2      1 FMM         1.3548
      3 O3         25.0530   34.2040   32.0670 O.2       1 FMM        -0.6113
      4 O4         24.5430   33.0770   30.0530 O.2       1 FMM        -0.6113
      5 C5         23.5870   31.9800   32.2910 C.3       1 FMM        -0.3418
      6 C6         22.0610   31.8360   32.3240 C.3       1 FMM         0.1435
      7 N7         21.5690   32.1840   33.6650 N.4       1 FMM        -0.7551
      8 C8         20.9140   31.0190   34.2650 C.3       1 FMM         0.0875
      9 C9         19.4160   31.2080   34.2230 C.ar      1 FMM         0.1613
     10 C10        18.6740   30.9770   33.1210 C.ar      1 FMM        -0.2107
     11 C11        17.4450   31.2370   33.4210 C.ar      1 FMM        -0.2175
     12 C12        17.4090   31.6450   34.7310 C.ar      1 FMM         0.3319
     13 O13        18.6550   31.6530   35.3630 O.3       1 FMM        -0.3350
     14 C14        16.1760   32.0580   35.4070 C.ar      1 FMM        -0.1401
     15 C15        14.9580   31.9860   34.7350 C.ar      1 FMM        -0.0216
     16 C16        13.8070   32.4020   35.3590 C.ar      1 FMM        -0.1513
     17 C17        13.8490   32.8900   36.6640 C.ar      1 FMM         0.1918
     18 N18        12.6830   33.3050   37.2760 N.pl3     1 FMM        -0.5966
     19 C19        12.7080   33.7900   38.5680 C.cat     1 FMM         0.3721
     20 N20        13.8990   33.8630   39.2600 N.ar      1 FMM        -0.6304
     21 C21        15.0770   33.4520   38.6680 C.ar      1 FMM         0.7696
     22 N22        16.2820   33.5270   39.3660 N.pl3     1 FMM        -0.5781
     23 C23        16.3320   33.8430   40.7350 C.ar      1 FMM         0.0364
     24 C24        17.1180   34.9090   41.1780 C.ar      1 FMM        -0.0803
     25 C25        17.1640   35.2150   42.5350 C.ar      1 FMM        -0.1568
     26 C26        16.4280   34.4570   43.4380 C.ar      1 FMM         0.1652
     27 O27        16.4460   34.7470   44.8280 O.3       1 FMM        -0.3178
     28 C28        17.0650   36.0020   45.1430 C.3       1 FMM         0.1821
     29 C29        16.0850   37.1810   44.9840 C.ar      1 FMM        -0.0934
     30 C30        16.5190   38.4620   45.2460 C.ar      1 FMM        -0.1289
     31 C31        15.6530   39.5270   45.1020 C.ar      1 FMM        -0.1014
     32 C32        14.3540   39.3120   44.6930 C.ar      1 FMM        -0.1438
     33 C33        13.9160   38.0360   44.4290 C.ar      1 FMM         0.1313
     34 F34        12.6790   37.8370   44.0350 F         1 FMM        -0.1299
     35 C35        14.7720   36.9660   44.5730 C.ar      1 FMM        -0.1369
     36 C36        15.6650   33.4150   42.9990 C.ar      1 FMM         0.0093
     37 CL3        14.7840   32.5140   44.1280 Cl        1 FMM        -0.0078
     38 C38        15.6070   33.0980   41.6600 C.ar      1 FMM        -0.1028
     39 C39        15.0530   32.9590   37.3490 C.ar      1 FMM        -0.2492
     40 C40        16.2200   32.5450   36.7310 C.ar      1 FMM        -0.0458
     41 H11A       21.8300   33.9266   30.5961 H         1 FMM         0.1389
     42 H12        22.8759   35.3868   30.5696 H         1 FMM         0.1389
     43 H13        22.2170   34.7821   32.1275 H         1 FMM         0.1389
     44 H51        24.0280   31.0942   31.8105 H         1 FMM         0.1286
     45 H52        23.9688   32.0679   33.3189 H         1 FMM         0.1286
     46 H61        21.6128   32.5116   31.5805 H         1 FMM         0.1225
     47 H62        21.7855   30.7974   32.0888 H         1 FMM         0.1225
     48 HN7        22.4145   32.4940   34.2967 H         1 FMM         0.4597
     49 H81        21.1859   30.1146   33.7010 H         1 FMM         0.1304
     50 H82        21.2414   30.9119   35.3097 H         1 FMM         0.1304
     51 H10        19.0180   30.6310   32.1320 H         1 FMM         0.1759
     52 H11        16.6070   31.1330   32.7120 H         1 FMM         0.1862
     53 H15        14.9050   31.5980   33.7040 H         1 FMM         0.1760
     54 H16        12.8500   32.3440   34.8130 H         1 FMM         0.1777
     55 H19        11.7720   34.1210   39.0500 H         1 FMM         0.2426
     56 H22        17.2320   33.3361   38.8454 H         1 FMM         0.4671
     57 H24        17.7010   35.5080   40.4580 H         1 FMM         0.1480
     58 H25        17.7820   36.0560   42.8940 H         1 FMM         0.1701
     59 H281       17.4183   35.9854   46.1846 H         1 FMM         0.0559
     60 H282       17.9181   36.1695   44.4691 H         1 FMM         0.0559
     61 H30        17.5590   38.6350   45.5710 H         1 FMM         0.1356
     62 H31        16.0000   40.5520   45.3140 H         1 FMM         0.1483
     63 H32        13.6630   40.1640   44.5770 H         1 FMM         0.1617
     64 H35        14.4090   35.9460   44.3610 H         1 FMM         0.1576
     65 H38        14.9830   32.2510   41.3300 H         1 FMM         0.1609
     66 H40        17.1720   32.6020   37.2860 H         1 FMM         0.1509
     67 H67        20.8469   33.0102   33.5877 H         1 FMM         0.4597
     68 H68        11.7275   33.2501   36.7337 H         1 FMM         0.4969
@<TRIPOS>BOND
     1    1    2 1
     2    1   41 1
     3    1   42 1
     4    1   43 1
     5    2    3 2
     6    2    4 2
     7    2    5 1
     8    5    6 1
     9    5   44 1
    10    5   45 1
    11    6    7 1
    12    6   46 1
    13    6   47 1
    14    7    8 1
    15    7   48 1
    16    7   67 1
    17    8    9 1
    18    8   49 1
    19    8   50 1
    20    9   10 ar
    21    9   13 ar
    22   10   11 ar
    23   10   51 1
    24   11   12 ar
    25   11   52 1
    26   12   13 ar
    27   12   14 1
    28   14   15 ar
    29   14   40 ar
    30   15   16 ar
    31   15   53 1
    32   16   17 ar
    33   16   54 1
    34   17   18 ar
    35   17   39 ar
    36   18   19 ar
    37   18   68 1
    38   19   20 ar
    39   19   55 1
    40   20   21 ar
    41   21   22 1
    42   21   39 ar
    43   22   23 1
    44   22   56 1
    45   23   24 ar
    46   23   38 ar
    47   24   25 ar
    48   24   57 1
    49   25   26 ar
    50   25   58 1
    51   26   27 1
    52   26   36 ar
    53   27   28 1
    54   28   29 1
    55   28   59 1
    56   28   60 1
    57   29   30 ar
    58   29   35 ar
    59   30   31 ar
    60   30   61 1
    61   31   32 ar
    62   31   62 1
    63   32   33 ar
    64   32   63 1
    65   33   34 1
    66   33   35 ar
    67   35   64 1
    68   36   37 1
    69   36   38 ar
    70   38   65 1
    71   39   40 ar
    72   40   66 1
@<TRIPOS>SUBSTRUCTURE
     1 FMM         1 GROUP   0 A     ****
