@<TRIPOS>MOLECULE
4-(2,4-dichloro-5-methoxy-anilino)-6-methoxy-7-[3-(4-methylpiperazin-4-ium-1-yl)propoxy]quinoline-3-carbonitrile
   66    69     1     0     0
SMALL
USER_CHARGES

@<TRIPOS>ATOM
      1 CAA       -46.2890  -11.8980   31.9630 C.3       1 DB8         0.1161
      2 O02       -40.7340   -3.3480   34.4650 O.3       1 DB8        -0.3364
      3 CAC       -45.9370  -16.7140   33.9290 C.3       1 DB8         0.1722
      4 NAD       -42.0470   -5.6070   36.9580 N.1       1 DB8        -0.3467
      5 CL1       -41.6410   -2.5430   31.7040 Cl        1 DB8        -0.0513
      6 CL2       -43.8530   -7.4090   31.5070 Cl        1 DB8        -0.0765
      7 CAG       -42.6040   -6.4970   36.8710 C.1       1 DB8         0.2411
      8 CAH       -44.1270   -8.3740   37.7730 C.ar      1 DB8         0.4723
      9 CAI       -42.6710   -5.0430   31.8540 C.ar      1 DB8        -0.0941
     10 CAJ       -41.7470   -5.6360   34.3880 C.ar      1 DB8        -0.1470
     11 CAK       -45.8070  -11.4630   36.5110 C.ar      1 DB8        -0.2072
     12 CAL       -44.4960  -10.5590   34.1910 C.ar      1 DB8        -0.1099
     13 CAM       -46.3970  -15.2540   33.9000 C.3       1 DB8        -0.0894
     14 CAN       -46.3040  -14.6450   35.2980 C.3       1 DB8         0.1311
     15 CAO       -49.7410  -20.4620   32.0550 C.3       1 DB8         0.0859
     16 CAP       -46.9010  -18.9560   34.0040 C.3       1 DB8         0.1432
     17 CAQ       -47.5400  -17.3980   32.3130 C.3       1 DB8         0.1432
     18 CAR       -48.0990  -19.8290   33.6830 C.3       1 DB8         0.1067
     19 CAS       -48.7550  -18.2620   32.0640 C.3       1 DB8         0.1067
     20 NAT       -44.8800   -9.5430   37.6960 N.ar      1 DB8        -0.6764
     21 NAU       -42.7700   -7.9670   34.2760 N.pl3     1 DB8        -0.6557
     22 OAV       -45.3390  -12.3390   32.8620 O.3       1 DB8        -0.3351
     23 OAW       -46.8510  -13.3800   35.2230 O.3       1 DB8        -0.3309
     24 CAX       -41.4640   -4.3120   33.7870 C.ar      1 DB8         0.1246
     25 CAY       -41.9390   -4.0440   32.5110 C.ar      1 DB8        -0.0006
     26 CAZ       -42.9410   -6.2980   32.4360 C.ar      1 DB8        -0.0192
     27 CBA       -43.4290   -7.8160   36.7070 C.ar      1 DB8        -0.1639
     28 CBB       -42.4850   -6.6150   33.7650 C.ar      1 DB8         0.1507
     29 CBC       -45.2610  -11.7280   34.1420 C.ar      1 DB8         0.0859
     30 CBD       -45.9310  -12.2080   35.3090 C.ar      1 DB8         0.1031
     31 CBE       -43.5260   -8.4920   35.4760 C.ar      1 DB8         0.2562
     32 CBF       -44.9960  -10.2460   36.5210 C.ar      1 DB8         0.4330
     33 CBG       -44.3210   -9.7500   35.3900 C.ar      1 DB8        -0.1798
     34 NBH       -47.1180  -17.5460   33.6690 N.3       1 DB8        -0.7389
     35 NBI       -48.5470  -19.6570   32.3240 N.4       1 DB8        -0.6848
     36 C01       -39.4020   -2.8960   34.0930 C.3       1 DB8         0.1148
     37 HAA       -46.2083  -12.4766   31.0309 H         1 DB8         0.0462
     38 HAAA      -46.1236  -10.8319   31.7483 H         1 DB8         0.0462
     39 HAAB      -47.2921  -12.0341   32.3934 H         1 DB8         0.0462
     40 HAC       -45.1731  -16.8732   33.1537 H         1 DB8         0.0525
     41 HACA      -45.5108  -16.9446   34.9165 H         1 DB8         0.0525
     42 HAH       -44.0820   -7.8660   38.7250 H         1 DB8         0.0411
     43 HAI       -43.0440   -4.8430   30.8600 H         1 DB8         0.1686
     44 HAJ       -41.3510   -5.8440   35.3710 H         1 DB8         0.1639
     45 HAK       -46.3070  -11.7920   37.4100 H         1 DB8         0.1593
     46 HAL       -44.0050  -10.2360   33.2850 H         1 DB8         0.1516
     47 HAM       -45.7559  -14.6811   33.2139 H         1 DB8         0.0684
     48 HAMA      -47.4400  -15.2050   33.5541 H         1 DB8         0.0684
     49 HAN       -46.8650  -15.2701   36.0083 H         1 DB8         0.0458
     50 HANA      -45.2494  -14.5953   35.6069 H         1 DB8         0.0458
     51 HAO       -50.0584  -20.3102   31.0128 H         1 DB8         0.1059
     52 HAOA      -50.5507  -20.1549   32.7333 H         1 DB8         0.1059
     53 HAOB      -49.5104  -21.5253   32.2169 H         1 DB8         0.1059
     54 HAP       -46.6821  -19.0151   35.0804 H         1 DB8         0.0771
     55 HAPA      -46.0286  -19.3060   33.4327 H         1 DB8         0.0771
     56 HAQ       -47.7942  -16.3451   32.1209 H         1 DB8         0.0771
     57 HAQA      -46.7268  -17.7075   31.6400 H         1 DB8         0.0771
     58 HAR       -47.8304  -20.8864   33.8237 H         1 DB8         0.1107
     59 HARA      -48.9317  -19.5699   34.3534 H         1 DB8         0.1107
     60 HAS       -49.5790  -17.9318   32.7136 H         1 DB8         0.1107
     61 HASA      -49.0596  -18.1717   31.0109 H         1 DB8         0.1107
     62 HNAU      -42.2952   -8.6691   33.5748 H         1 DB8         0.4392
     63 H01       -39.0639   -2.1274   34.8036 H         1 DB8         0.0495
     64 H01A      -39.4289   -2.4712   33.0787 H         1 DB8         0.0495
     65 H01B      -38.7062   -3.7477   34.1155 H         1 DB8         0.0495
     66 H66       -47.7591  -20.0022   31.6385 H         1 DB8         0.4447
@<TRIPOS>BOND
     1    1   22 1
     2    1   37 1
     3    1   38 1
     4    1   39 1
     5    2   24 1
     6    2   36 1
     7    3   40 1
     8    3   41 1
     9    3   13 1
    10    3   34 1
    11    4    7 3
    12    5   25 1
    13    6   26 1
    14    7   27 1
    15    8   42 1
    16    8   20 ar
    17    8   27 ar
    18    9   26 ar
    19    9   25 ar
    20    9   43 1
    21   10   44 1
    22   10   24 ar
    23   10   28 ar
    24   11   32 ar
    25   11   45 1
    26   11   30 ar
    27   12   33 ar
    28   12   46 1
    29   12   29 ar
    30   13   14 1
    31   13   47 1
    32   13   48 1
    33   14   49 1
    34   14   50 1
    35   14   23 1
    36   15   35 1
    37   15   51 1
    38   15   52 1
    39   15   53 1
    40   16   54 1
    41   16   55 1
    42   16   18 1
    43   16   34 1
    44   17   34 1
    45   17   56 1
    46   17   57 1
    47   17   19 1
    48   18   58 1
    49   18   59 1
    50   18   35 1
    51   19   35 1
    52   19   60 1
    53   19   61 1
    54   20   32 ar
    55   21   31 1
    56   21   62 1
    57   21   28 1
    58   22   29 1
    59   23   30 1
    60   24   25 ar
    61   26   28 ar
    62   27   31 ar
    63   29   30 ar
    64   31   33 ar
    65   32   33 ar
    66   35   66 1
    67   36   63 1
    68   36   64 1
    69   36   65 1
@<TRIPOS>SUBSTRUCTURE
     1 DB8         1 GROUP   0 A     ****
@<TRIPOS>MOLECULE
4-(2,4-dichloro-5-methoxy-anilino)-6-methoxy-7-[3-(4-methylpiperazin-1-ium-1-yl)propoxy]quinoline-3-carbonitrile
   66    69     1     0     0
SMALL
USER_CHARGES

@<TRIPOS>ATOM
      1 CAA       -46.2890  -11.8980   31.9630 C.3       1 DB8         0.1155
      2 O02       -40.7340   -3.3480   34.4650 O.3       1 DB8        -0.3364
      3 CAC       -45.9370  -16.7140   33.9290 C.3       1 DB8         0.1125
      4 NAD       -42.0470   -5.6070   36.9580 N.1       1 DB8        -0.3254
      5 CL1       -41.6410   -2.5430   31.7040 Cl        1 DB8        -0.0472
      6 CL2       -43.8530   -7.4090   31.5070 Cl        1 DB8        -0.0758
      7 CAG       -42.6040   -6.4970   36.8710 C.1       1 DB8         0.2269
      8 CAH       -44.1270   -8.3740   37.7730 C.ar      1 DB8         0.4678
      9 CAI       -42.6710   -5.0430   31.8540 C.ar      1 DB8        -0.0815
     10 CAJ       -41.7470   -5.6360   34.3880 C.ar      1 DB8        -0.1758
     11 CAK       -45.8070  -11.4630   36.5110 C.ar      1 DB8        -0.2017
     12 CAL       -44.4960  -10.5590   34.1910 C.ar      1 DB8        -0.0985
     13 CAM       -46.3970  -15.2540   33.9000 C.3       1 DB8        -0.1248
     14 CAN       -46.3040  -14.6450   35.2980 C.3       1 DB8         0.1356
     15 CAO       -49.7410  -20.4620   32.0550 C.3       1 DB8         0.1491
     16 CAP       -46.9010  -18.9560   34.0040 C.3       1 DB8         0.1133
     17 CAQ       -47.5400  -17.3980   32.3130 C.3       1 DB8         0.1133
     18 CAR       -48.0990  -19.8290   33.6830 C.3       1 DB8         0.1409
     19 CAS       -48.7550  -18.2620   32.0640 C.3       1 DB8         0.1409
     20 NAT       -44.8800   -9.5430   37.6960 N.ar      1 DB8        -0.6686
     21 NAU       -42.7700   -7.9670   34.2760 N.pl3     1 DB8        -0.6906
     22 OAV       -45.3390  -12.3390   32.8620 O.3       1 DB8        -0.3370
     23 OAW       -46.8510  -13.3800   35.2230 O.3       1 DB8        -0.3278
     24 CAX       -41.4640   -4.3120   33.7870 C.ar      1 DB8         0.1324
     25 CAY       -41.9390   -4.0440   32.5110 C.ar      1 DB8        -0.0146
     26 CAZ       -42.9410   -6.2980   32.4360 C.ar      1 DB8        -0.0304
     27 CBA       -43.4290   -7.8160   36.7070 C.ar      1 DB8        -0.1606
     28 CBB       -42.4850   -6.6150   33.7650 C.ar      1 DB8         0.1809
     29 CBC       -45.2610  -11.7280   34.1420 C.ar      1 DB8         0.0867
     30 CBD       -45.9310  -12.2080   35.3090 C.ar      1 DB8         0.0895
     31 CBE       -43.5260   -8.4920   35.4760 C.ar      1 DB8         0.2595
     32 CBF       -44.9960  -10.2460   36.5210 C.ar      1 DB8         0.4256
     33 CBG       -44.3210   -9.7500   35.3900 C.ar      1 DB8        -0.1696
     34 NBH       -47.1180  -17.5460   33.6690 N.4       1 DB8        -0.6940
     35 NBI       -48.5470  -19.6570   32.3240 N.3       1 DB8        -0.7371
     36 C01       -39.4020   -2.8960   34.0930 C.3       1 DB8         0.1165
     37 HAA       -46.2083  -12.4766   31.0309 H         1 DB8         0.0479
     38 HAAA      -46.1236  -10.8319   31.7483 H         1 DB8         0.0479
     39 HAAB      -47.2921  -12.0341   32.3934 H         1 DB8         0.0479
     40 HAC       -45.1731  -16.8732   33.1537 H         1 DB8         0.1060
     41 HACA      -45.5108  -16.9446   34.9165 H         1 DB8         0.1060
     42 HAH       -44.0820   -7.8660   38.7250 H         1 DB8         0.0459
     43 HAI       -43.0440   -4.8430   30.8600 H         1 DB8         0.1703
     44 HAJ       -41.3510   -5.8440   35.3710 H         1 DB8         0.1580
     45 HAK       -46.3070  -11.7920   37.4100 H         1 DB8         0.1592
     46 HAL       -44.0050  -10.2360   33.2850 H         1 DB8         0.1637
     47 HAM       -45.7559  -14.6811   33.2139 H         1 DB8         0.0811
     48 HAMA      -47.4400  -15.2050   33.5541 H         1 DB8         0.0811
     49 HAN       -46.8650  -15.2701   36.0083 H         1 DB8         0.0544
     50 HANA      -45.2494  -14.5953   35.6069 H         1 DB8         0.0544
     51 HAO       -50.0584  -20.3102   31.0128 H         1 DB8         0.0587
     52 HAOA      -50.5507  -20.1549   32.7333 H         1 DB8         0.0587
     53 HAOB      -49.5104  -21.5253   32.2169 H         1 DB8         0.0587
     54 HAP       -46.6821  -19.0151   35.0804 H         1 DB8         0.1096
     55 HAPA      -46.0286  -19.3060   33.4327 H         1 DB8         0.1096
     56 HAQ       -47.7942  -16.3451   32.1209 H         1 DB8         0.1096
     57 HAQA      -46.7268  -17.7075   31.6400 H         1 DB8         0.1096
     58 HAR       -47.8304  -20.8864   33.8237 H         1 DB8         0.0757
     59 HARA      -48.9317  -19.5699   34.3534 H         1 DB8         0.0757
     60 HAS       -49.5790  -17.9318   32.7136 H         1 DB8         0.0757
     61 HASA      -49.0596  -18.1717   31.0109 H         1 DB8         0.0757
     62 HNAU      -42.2952   -8.6691   33.5748 H         1 DB8         0.4617
     63 H01       -39.0639   -2.1274   34.8036 H         1 DB8         0.0481
     64 H01A      -39.4289   -2.4712   33.0787 H         1 DB8         0.0481
     65 H01B      -38.7062   -3.7477   34.1155 H         1 DB8         0.0481
     66 H66       -47.9374  -17.1850   34.3079 H         1 DB8         0.4438
@<TRIPOS>BOND
     1    1   22 1
     2    1   37 1
     3    1   38 1
     4    1   39 1
     5    2   24 1
     6    2   36 1
     7    3   40 1
     8    3   41 1
     9    3   13 1
    10    3   34 1
    11    4    7 3
    12    5   25 1
    13    6   26 1
    14    7   27 1
    15    8   42 1
    16    8   20 ar
    17    8   27 ar
    18    9   26 ar
    19    9   25 ar
    20    9   43 1
    21   10   44 1
    22   10   24 ar
    23   10   28 ar
    24   11   32 ar
    25   11   45 1
    26   11   30 ar
    27   12   33 ar
    28   12   46 1
    29   12   29 ar
    30   13   14 1
    31   13   47 1
    32   13   48 1
    33   14   49 1
    34   14   50 1
    35   14   23 1
    36   15   35 1
    37   15   51 1
    38   15   52 1
    39   15   53 1
    40   16   54 1
    41   16   55 1
    42   16   18 1
    43   16   34 1
    44   17   34 1
    45   17   56 1
    46   17   57 1
    47   17   19 1
    48   18   58 1
    49   18   59 1
    50   18   35 1
    51   19   35 1
    52   19   60 1
    53   19   61 1
    54   20   32 ar
    55   21   31 1
    56   21   62 1
    57   21   28 1
    58   22   29 1
    59   23   30 1
    60   24   25 ar
    61   26   28 ar
    62   27   31 ar
    63   29   30 ar
    64   31   33 ar
    65   32   33 ar
    66   34   66 1
    67   36   63 1
    68   36   64 1
    69   36   65 1
@<TRIPOS>SUBSTRUCTURE
     1 DB8         1 GROUP   0 A     ****
@<TRIPOS>MOLECULE
4-(2,4-dichloro-5-methoxy-anilino)-6-methoxy-7-[3-(4-methylpiperazin-1-yl)propoxy]quinoline-3-carbonitrile
   65    68     1     0     0
SMALL
USER_CHARGES

@<TRIPOS>ATOM
      1 CAA       -46.2890  -11.8980   31.9630 C.3       1 DB8         0.1166
      2 O02       -40.7340   -3.3480   34.4650 O.3       1 DB8        -0.3376
      3 CAC       -45.9370  -16.7140   33.9290 C.3       1 DB8         0.1798
      4 NAD       -42.0470   -5.6070   36.9580 N.1       1 DB8        -0.3639
      5 CL1       -41.6410   -2.5430   31.7040 Cl        1 DB8        -0.0612
      6 CL2       -43.8530   -7.4090   31.5070 Cl        1 DB8        -0.0723
      7 CAG       -42.6040   -6.4970   36.8710 C.1       1 DB8         0.2494
      8 CAH       -44.1270   -8.3740   37.7730 C.ar      1 DB8         0.4641
      9 CAI       -42.6710   -5.0430   31.8540 C.ar      1 DB8        -0.0939
     10 CAJ       -41.7470   -5.6360   34.3880 C.ar      1 DB8        -0.1504
     11 CAK       -45.8070  -11.4630   36.5110 C.ar      1 DB8        -0.2137
     12 CAL       -44.4960  -10.5590   34.1910 C.ar      1 DB8        -0.1194
     13 CAM       -46.3970  -15.2540   33.9000 C.3       1 DB8        -0.0886
     14 CAN       -46.3040  -14.6450   35.2980 C.3       1 DB8         0.1312
     15 CAO       -49.7410  -20.4620   32.0550 C.3       1 DB8         0.1607
     16 CAP       -46.9010  -18.9560   34.0040 C.3       1 DB8         0.1721
     17 CAQ       -47.5400  -17.3980   32.3130 C.3       1 DB8         0.1721
     18 CAR       -48.0990  -19.8290   33.6830 C.3       1 DB8         0.1692
     19 CAS       -48.7550  -18.2620   32.0640 C.3       1 DB8         0.1692
     20 NAT       -44.8800   -9.5430   37.6960 N.ar      1 DB8        -0.6683
     21 NAU       -42.7700   -7.9670   34.2760 N.pl3     1 DB8        -0.6591
     22 OAV       -45.3390  -12.3390   32.8620 O.3       1 DB8        -0.3322
     23 OAW       -46.8510  -13.3800   35.2230 O.3       1 DB8        -0.3321
     24 CAX       -41.4640   -4.3120   33.7870 C.ar      1 DB8         0.1220
     25 CAY       -41.9390   -4.0440   32.5110 C.ar      1 DB8        -0.0040
     26 CAZ       -42.9410   -6.2980   32.4360 C.ar      1 DB8        -0.0200
     27 CBA       -43.4290   -7.8160   36.7070 C.ar      1 DB8        -0.1726
     28 CBB       -42.4850   -6.6150   33.7650 C.ar      1 DB8         0.1623
     29 CBC       -45.2610  -11.7280   34.1420 C.ar      1 DB8         0.0885
     30 CBD       -45.9310  -12.2080   35.3090 C.ar      1 DB8         0.1227
     31 CBE       -43.5260   -8.4920   35.4760 C.ar      1 DB8         0.2528
     32 CBF       -44.9960  -10.2460   36.5210 C.ar      1 DB8         0.4347
     33 CBG       -44.3210   -9.7500   35.3900 C.ar      1 DB8        -0.1847
     34 NBH       -47.1180  -17.5460   33.6690 N.3       1 DB8        -0.7394
     35 NBI       -48.5470  -19.6570   32.3240 N.3       1 DB8        -0.7367
     36 C01       -39.4020   -2.8960   34.0930 C.3       1 DB8         0.1153
     37 HAA       -46.2083  -12.4766   31.0309 H         1 DB8         0.0451
     38 HAAA      -46.1236  -10.8319   31.7483 H         1 DB8         0.0451
     39 HAAB      -47.2921  -12.0341   32.3934 H         1 DB8         0.0451
     40 HAC       -45.1731  -16.8732   33.1537 H         1 DB8         0.0321
     41 HACA      -45.5108  -16.9446   34.9165 H         1 DB8         0.0321
     42 HAH       -44.0820   -7.8660   38.7250 H         1 DB8         0.0368
     43 HAI       -43.0440   -4.8430   30.8600 H         1 DB8         0.1666
     44 HAJ       -41.3510   -5.8440   35.3710 H         1 DB8         0.1629
     45 HAK       -46.3070  -11.7920   37.4100 H         1 DB8         0.1664
     46 HAL       -44.0050  -10.2360   33.2850 H         1 DB8         0.1461
     47 HAM       -45.7559  -14.6811   33.2139 H         1 DB8         0.0655
     48 HAMA      -47.4400  -15.2050   33.5541 H         1 DB8         0.0655
     49 HAN       -46.8650  -15.2701   36.0083 H         1 DB8         0.0409
     50 HANA      -45.2494  -14.5953   35.6069 H         1 DB8         0.0409
     51 HAO       -50.0584  -20.3102   31.0128 H         1 DB8         0.0318
     52 HAOA      -50.5507  -20.1549   32.7333 H         1 DB8         0.0318
     53 HAOB      -49.5104  -21.5253   32.2169 H         1 DB8         0.0318
     54 HAP       -46.6821  -19.0151   35.0804 H         1 DB8         0.0370
     55 HAPA      -46.0286  -19.3060   33.4327 H         1 DB8         0.0370
     56 HAQ       -47.7942  -16.3451   32.1209 H         1 DB8         0.0370
     57 HAQA      -46.7268  -17.7075   31.6400 H         1 DB8         0.0370
     58 HAR       -47.8304  -20.8864   33.8237 H         1 DB8         0.0370
     59 HARA      -48.9317  -19.5699   34.3534 H         1 DB8         0.0370
     60 HAS       -49.5790  -17.9318   32.7136 H         1 DB8         0.0370
     61 HASA      -49.0596  -18.1717   31.0109 H         1 DB8         0.0370
     62 HNAU      -42.2952   -8.6691   33.5748 H         1 DB8         0.4419
     63 H01       -39.0639   -2.1274   34.8036 H         1 DB8         0.0475
     64 H01A      -39.4289   -2.4712   33.0787 H         1 DB8         0.0475
     65 H01B      -38.7062   -3.7477   34.1155 H         1 DB8         0.0475
@<TRIPOS>BOND
     1    1   22 1
     2    1   37 1
     3    1   38 1
     4    1   39 1
     5    2   24 1
     6    2   36 1
     7    3   40 1
     8    3   41 1
     9    3   13 1
    10    3   34 1
    11    4    7 3
    12    5   25 1
    13    6   26 1
    14    7   27 1
    15    8   42 1
    16    8   20 ar
    17    8   27 ar
    18    9   26 ar
    19    9   25 ar
    20    9   43 1
    21   10   44 1
    22   10   24 ar
    23   10   28 ar
    24   11   32 ar
    25   11   45 1
    26   11   30 ar
    27   12   33 ar
    28   12   46 1
    29   12   29 ar
    30   13   14 1
    31   13   47 1
    32   13   48 1
    33   14   49 1
    34   14   50 1
    35   14   23 1
    36   15   35 1
    37   15   51 1
    38   15   52 1
    39   15   53 1
    40   16   54 1
    41   16   55 1
    42   16   18 1
    43   16   34 1
    44   17   34 1
    45   17   56 1
    46   17   57 1
    47   17   19 1
    48   18   58 1
    49   18   59 1
    50   18   35 1
    51   19   35 1
    52   19   60 1
    53   19   61 1
    54   20   32 ar
    55   21   31 1
    56   21   62 1
    57   21   28 1
    58   22   29 1
    59   23   30 1
    60   24   25 ar
    61   26   28 ar
    62   27   31 ar
    63   29   30 ar
    64   31   33 ar
    65   32   33 ar
    66   36   63 1
    67   36   64 1
    68   36   65 1
@<TRIPOS>SUBSTRUCTURE
     1 DB8         1 GROUP   0 A     ****
@<TRIPOS>MOLECULE
[3-cyano-6-methoxy-7-[3-(4-methylpiperazin-4-ium-1-yl)propoxy]-4-quinolyl]-(2,4-dichloro-5-methoxy-phenyl)azanide
   65    68     1     0     0
SMALL
USER_CHARGES

@<TRIPOS>ATOM
      1 CAA       -46.2890  -11.8980   31.9630 C.3       1 DB8         0.1194
      2 O02       -40.7340   -3.3480   34.4650 O.3       1 DB8        -0.3480
      3 CAC       -45.9370  -16.7140   33.9290 C.3       1 DB8         0.1654
      4 NAD       -42.0470   -5.6070   36.9580 N.1       1 DB8        -0.4796
      5 CL1       -41.6410   -2.5430   31.7040 Cl        1 DB8        -0.1138
      6 CL2       -43.8530   -7.4090   31.5070 Cl        1 DB8        -0.1129
      7 CAG       -42.6040   -6.4970   36.8710 C.1       1 DB8         0.2981
      8 CAH       -44.1270   -8.3740   37.7730 C.ar      1 DB8         0.5221
      9 CAI       -42.6710   -5.0430   31.8540 C.ar      1 DB8        -0.1048
     10 CAJ       -41.7470   -5.6360   34.3880 C.ar      1 DB8        -0.1662
     11 CAK       -45.8070  -11.4630   36.5110 C.ar      1 DB8        -0.2490
     12 CAL       -44.4960  -10.5590   34.1910 C.ar      1 DB8        -0.0453
     13 CAM       -46.3970  -15.2540   33.9000 C.3       1 DB8        -0.0882
     14 CAN       -46.3040  -14.6450   35.2980 C.3       1 DB8         0.1308
     15 CAO       -49.7410  -20.4620   32.0550 C.3       1 DB8         0.0840
     16 CAP       -46.9010  -18.9560   34.0040 C.3       1 DB8         0.1417
     17 CAQ       -47.5400  -17.3980   32.3130 C.3       1 DB8         0.1417
     18 CAR       -48.0990  -19.8290   33.6830 C.3       1 DB8         0.1081
     19 CAS       -48.7550  -18.2620   32.0640 C.3       1 DB8         0.1081
     20 NAT       -44.8800   -9.5430   37.6960 N.ar      1 DB8        -0.8013
     21 NAU       -42.7700   -7.9670   34.2760 N.2       1 DB8        -0.5194
     22 OAV       -45.3390  -12.3390   32.8620 O.3       1 DB8        -0.3442
     23 OAW       -46.8510  -13.3800   35.2230 O.3       1 DB8        -0.3414
     24 CAX       -41.4640   -4.3120   33.7870 C.ar      1 DB8         0.1206
     25 CAY       -41.9390   -4.0440   32.5110 C.ar      1 DB8        -0.0371
     26 CAZ       -42.9410   -6.2980   32.4360 C.ar      1 DB8        -0.0307
     27 CBA       -43.4290   -7.8160   36.7070 C.ar      1 DB8        -0.3793
     28 CBB       -42.4850   -6.6150   33.7650 C.ar      1 DB8         0.2167
     29 CBC       -45.2610  -11.7280   34.1420 C.ar      1 DB8         0.0027
     30 CBD       -45.9310  -12.2080   35.3090 C.ar      1 DB8         0.0829
     31 CBE       -43.5260   -8.4920   35.4760 C.ar      1 DB8         0.3116
     32 CBF       -44.9960  -10.2460   36.5210 C.ar      1 DB8         0.4661
     33 CBG       -44.3210   -9.7500   35.3900 C.ar      1 DB8        -0.1873
     34 NBH       -47.1180  -17.5460   33.6690 N.3       1 DB8        -0.7323
     35 NBI       -48.5470  -19.6570   32.3240 N.4       1 DB8        -0.6843
     36 C01       -39.4020   -2.8960   34.0930 C.3       1 DB8         0.1142
     37 HAA       -46.2083  -12.4766   31.0309 H         1 DB8         0.0336
     38 HAAA      -46.1236  -10.8319   31.7483 H         1 DB8         0.0336
     39 HAAB      -47.2921  -12.0341   32.3934 H         1 DB8         0.0336
     40 HAC       -45.1731  -16.8732   33.1537 H         1 DB8         0.0527
     41 HACA      -45.5108  -16.9446   34.9165 H         1 DB8         0.0527
     42 HAH       -44.0820   -7.8660   38.7250 H         1 DB8        -0.0017
     43 HAI       -43.0440   -4.8430   30.8600 H         1 DB8         0.1441
     44 HAJ       -41.3510   -5.8440   35.3710 H         1 DB8         0.1564
     45 HAK       -46.3070  -11.7920   37.4100 H         1 DB8         0.1338
     46 HAL       -44.0050  -10.2360   33.2850 H         1 DB8         0.1670
     47 HAM       -45.7559  -14.6811   33.2139 H         1 DB8         0.0628
     48 HAMA      -47.4400  -15.2050   33.5541 H         1 DB8         0.0628
     49 HAN       -46.8650  -15.2701   36.0083 H         1 DB8         0.0409
     50 HANA      -45.2494  -14.5953   35.6069 H         1 DB8         0.0409
     51 HAO       -50.0584  -20.3102   31.0128 H         1 DB8         0.1025
     52 HAOA      -50.5507  -20.1549   32.7333 H         1 DB8         0.1025
     53 HAOB      -49.5104  -21.5253   32.2169 H         1 DB8         0.1025
     54 HAP       -46.6821  -19.0151   35.0804 H         1 DB8         0.0781
     55 HAPA      -46.0286  -19.3060   33.4327 H         1 DB8         0.0781
     56 HAQ       -47.7942  -16.3451   32.1209 H         1 DB8         0.0781
     57 HAQA      -46.7268  -17.7075   31.6400 H         1 DB8         0.0781
     58 HAR       -47.8304  -20.8864   33.8237 H         1 DB8         0.1064
     59 HARA      -48.9317  -19.5699   34.3534 H         1 DB8         0.1064
     60 HAS       -49.5790  -17.9318   32.7136 H         1 DB8         0.1064
     61 HASA      -49.0596  -18.1717   31.0109 H         1 DB8         0.1064
     62 H01       -39.0639   -2.1274   34.8036 H         1 DB8         0.0428
     63 H01A      -39.4289   -2.4712   33.0787 H         1 DB8         0.0428
     64 H01B      -38.7062   -3.7477   34.1155 H         1 DB8         0.0428
     65 H65       -47.7591  -20.0022   31.6385 H         1 DB8         0.4435
@<TRIPOS>BOND
     1    1   22 1
     2    1   37 1
     3    1   38 1
     4    1   39 1
     5    2   24 1
     6    2   36 1
     7    3   40 1
     8    3   41 1
     9    3   13 1
    10    3   34 1
    11    4    7 3
    12    5   25 1
    13    6   26 1
    14    7   27 1
    15    8   42 1
    16    8   20 ar
    17    8   27 ar
    18    9   26 ar
    19    9   25 ar
    20    9   43 1
    21   10   44 1
    22   10   24 ar
    23   10   28 ar
    24   11   32 ar
    25   11   45 1
    26   11   30 ar
    27   12   33 ar
    28   12   46 1
    29   12   29 ar
    30   13   14 1
    31   13   47 1
    32   13   48 1
    33   14   49 1
    34   14   50 1
    35   14   23 1
    36   15   35 1
    37   15   51 1
    38   15   52 1
    39   15   53 1
    40   16   54 1
    41   16   55 1
    42   16   18 1
    43   16   34 1
    44   17   34 1
    45   17   56 1
    46   17   57 1
    47   17   19 1
    48   18   58 1
    49   18   59 1
    50   18   35 1
    51   19   35 1
    52   19   60 1
    53   19   61 1
    54   20   32 ar
    55   21   31 1
    56   21   28 1
    57   22   29 1
    58   23   30 1
    59   24   25 ar
    60   26   28 ar
    61   27   31 ar
    62   29   30 ar
    63   31   33 ar
    64   32   33 ar
    65   35   65 1
    66   36   62 1
    67   36   63 1
    68   36   64 1
@<TRIPOS>SUBSTRUCTURE
     1 DB8         1 GROUP   0 A     ****
