@<TRIPOS>MOLECULE
LQQ
63   67    1
SMALL
USER_CHARGES


@<TRIPOS>ATOM
      1 O01        32.4090   28.5440   60.1410 O.2       1 LQQ         0.0000 
      2 C02        33.0080   27.5190   59.9010 C.2       1 LQQ         0.0000 
      3 C01        34.3120   27.5070   59.1620 C.3       1 LQQ         0.0000 
      4 C03        32.4150   26.2120   60.3390 C.ar      1 LQQ         0.0000 
      5 C04        32.6480   25.6900   61.6150 C.ar      1 LQQ         0.0000 
      6 C05        33.4290   26.4260   62.6690 C.3       1 LQQ         0.0000 
      7 C06        31.9290   24.4600   62.0050 C.ar      1 LQQ         0.0000 
      8 C07        32.1990   23.7830   63.2720 C.ar      1 LQQ         0.0000 
      9 N01        31.5880   22.6260   63.5420 N.ar      1 LQQ         0.0000 
     10 C08        30.8720   21.9680   62.6070 C.ar      1 LQQ         0.0000 
     11 N02        30.7030   22.5010   61.3540 N.ar      1 LQQ         0.0000 
     12 C09        31.2660   23.6800   60.9670 C.ar      1 LQQ         0.0000 
     13 N03        31.0700   24.2300   59.7410 N.pl3     1 LQQ         0.0000 
     14 C10        30.2950   23.4750   58.7390 C.3       1 LQQ         0.0000 
     15 C11        29.2130   24.2680   58.0150 C.3       1 LQQ         0.0000 
     16 C12        29.2870   23.8720   56.5360 C.3       1 LQQ         0.0000 
     17 C13        30.5060   22.9550   56.3320 C.3       1 LQQ         0.0000 
     18 C14        31.2520   22.9450   57.6650 C.3       1 LQQ         0.0000 
     19 C15        31.6630   25.4930   59.4060 C.ar      1 LQQ         0.0000 
     20 O02        31.5220   26.0010   58.2620 O.2       1 LQQ         0.0000 
     21 N04        30.3500   20.7760   63.0170 N.pl3     1 LQQ         0.0000 
     22 C16        29.6660   19.8610   62.2880 C.ar      1 LQQ         0.0000 
     23 N05        29.5140   18.6170   62.8010 N.ar      1 LQQ         0.0000 
     24 C17        28.8440   17.6710   62.1330 C.ar      1 LQQ         0.0000 
     25 C18        28.2800   17.9460   60.8870 C.ar      1 LQQ         0.0000 
     26 C19        28.4240   19.2200   60.3470 C.ar      1 LQQ         0.0000 
     27 C20        29.1170   20.1840   61.0520 C.ar      1 LQQ         0.0000 
     28 N06        27.5710   16.9530   60.1740 N.pl3     1 LQQ         0.0000 
     29 C21        28.4660   15.8000   59.9060 C.3       1 LQQ         0.0000 
     30 C22        27.7120   14.6830   59.1890 C.3       1 LQQ         0.0000 
     31 N07        27.0440   15.1960   58.0030 N.4       1 LQQ         0.0000 
     32 C23        26.3410   16.4760   58.0250 C.3       1 LQQ         0.0000 
     33 C24        26.9860   17.5260   58.9330 C.3       1 LQQ         0.0000 
     34 H011       34.6670   26.4707   59.0616 H         1 LQQ         0.0000 
     35 H012       35.0547   28.0967   59.7193 H         1 LQQ         0.0000 
     36 H013       34.1712   27.9448   58.1628 H         1 LQQ         0.0000 
     37 H051       33.4767   25.8158   63.5830 H         1 LQQ         0.0000 
     38 H052       32.9331   27.3822   62.8920 H         1 LQQ         0.0000 
     39 H053       34.4483   26.6182   62.3028 H         1 LQQ         0.0000 
     40 H1         32.8870   24.2150   63.9840 H         1 LQQ         0.0000 
     41 H10        29.8007   22.7009   59.3443 H         1 LQQ         0.0000 
     42 H111       28.2291   24.0162   58.4376 H         1 LQQ         0.0000 
     43 H112       29.4013   25.3445   58.1406 H         1 LQQ         0.0000 
     44 H121       28.3671   23.3397   56.2525 H         1 LQQ         0.0000 
     45 H122       29.3921   24.7766   55.9190 H         1 LQQ         0.0000 
     46 H131       30.1640   21.9455   56.0601 H         1 LQQ         0.0000 
     47 H132       31.1371   23.3578   55.5261 H         1 LQQ         0.0000 
     48 H141       32.1388   23.5936   57.6118 H         1 LQQ         0.0000 
     49 H142       31.5614   21.9213   57.9224 H         1 LQQ         0.0000 
     50 H04        30.4642   20.4564   64.0633 H         1 LQQ         0.0000 
     51 H17        28.7390   16.6860   62.5620 H         1 LQQ         0.0000 
     52 H19        27.9970   19.4530   59.3830 H         1 LQQ         0.0000 
     53 H20        29.2310   21.1790   60.6470 H         1 LQQ         0.0000 
     54 H211       29.3038   16.1258   59.2719 H         1 LQQ         0.0000 
     55 H212       28.8564   15.4099   60.8575 H         1 LQQ         0.0000 
     56 H221       28.4204   13.8974   58.8874 H         1 LQQ         0.0000 
     57 H222       26.9577   14.2562   59.8664 H         1 LQQ         0.0000 
     58 H07        27.7790   15.3240   57.1947 H         1 LQQ         0.0000 
     59 H231       26.3151   16.8976   57.0093 H         1 LQQ         0.0000 
     60 H232       25.3128   16.3235   58.3851 H         1 LQQ         0.0000 
     61 H241       26.2078   18.2569   59.1980 H         1 LQQ         0.0000 
     62 H242       27.7754   18.0254   58.3521 H         1 LQQ         0.0000 
     63 H63        26.2675   14.4855   57.6833 H         1 LQQ         0.0000 
@<TRIPOS>BOND
     1    1    2 2    
     2    2    3 1    
     3    2    4 1    
     4    3   34 1    
     5    3   35 1    
     6    3   36 1    
     7    4    5 ar   
     8    4   19 ar   
     9    5    6 1    
    10    5    7 ar   
    11    6   37 1    
    12    6   38 1    
    13    6   39 1    
    14    7    8 ar   
    15    7   12 ar   
    16    8    9 ar   
    17    8   40 1    
    18    9   10 ar   
    19   10   11 ar   
    20   10   21 1    
    21   11   12 ar   
    22   12   13 ar   
    23   13   14 1    
    24   13   19 ar   
    25   14   15 1    
    26   14   18 1    
    27   14   41 1    
    28   15   16 1    
    29   15   42 1    
    30   15   43 1    
    31   16   17 1    
    32   16   44 1    
    33   16   45 1    
    34   17   18 1    
    35   17   46 1    
    36   17   47 1    
    37   18   48 1    
    38   18   49 1    
    39   19   20 2    
    40   21   22 1    
    41   21   50 1    
    42   22   23 ar   
    43   22   27 ar   
    44   23   24 ar   
    45   24   25 ar   
    46   24   51 1    
    47   25   26 ar   
    48   25   28 1    
    49   26   27 ar   
    50   26   52 1    
    51   27   53 1    
    52   28   29 1    
    53   28   33 1    
    54   29   30 1    
    55   29   54 1    
    56   29   55 1    
    57   30   31 1    
    58   30   56 1    
    59   30   57 1    
    60   31   32 1    
    61   31   58 1    
    62   31   63 1    
    63   32   33 1    
    64   32   59 1    
    65   32   60 1    
    66   33   61 1    
    67   33   62 1    
@<TRIPOS>SUBSTRUCTURE
     1 LQQ         1 GROUP             0       ****    0 ROOT    
@<TRIPOS>MOLECULE
LQQ
64   68    1
SMALL
USER_CHARGES


@<TRIPOS>ATOM
      1 O01        32.4090   28.5440   60.1410 O.2       1 LQQ         0.0000 
      2 C02        33.0080   27.5190   59.9010 C.2       1 LQQ         0.0000 
      3 C01        34.3120   27.5070   59.1620 C.3       1 LQQ         0.0000 
      4 C03        32.4150   26.2120   60.3390 C.ar      1 LQQ         0.0000 
      5 C04        32.6480   25.6900   61.6150 C.ar      1 LQQ         0.0000 
      6 C05        33.4290   26.4260   62.6690 C.3       1 LQQ         0.0000 
      7 C06        31.9290   24.4600   62.0050 C.ar      1 LQQ         0.0000 
      8 C07        32.1990   23.7830   63.2720 C.ar      1 LQQ         0.0000 
      9 N01        31.5880   22.6260   63.5420 N.ar      1 LQQ         0.0000 
     10 C08        30.8720   21.9680   62.6070 C.ar      1 LQQ         0.0000 
     11 N02        30.7030   22.5010   61.3540 N.ar      1 LQQ         0.0000 
     12 C09        31.2660   23.6800   60.9670 C.ar      1 LQQ         0.0000 
     13 N03        31.0700   24.2300   59.7410 N.pl3     1 LQQ         0.0000 
     14 C10        30.2950   23.4750   58.7390 C.3       1 LQQ         0.0000 
     15 C11        29.2130   24.2680   58.0150 C.3       1 LQQ         0.0000 
     16 C12        29.2870   23.8720   56.5360 C.3       1 LQQ         0.0000 
     17 C13        30.5060   22.9550   56.3320 C.3       1 LQQ         0.0000 
     18 C14        31.2520   22.9450   57.6650 C.3       1 LQQ         0.0000 
     19 C15        31.6630   25.4930   59.4060 C.ar      1 LQQ         0.0000 
     20 O02        31.5220   26.0010   58.2620 O.2       1 LQQ         0.0000 
     21 N04        30.3500   20.7760   63.0170 N.pl3     1 LQQ         0.0000 
     22 C16        29.6660   19.8610   62.2880 C.ar      1 LQQ         0.0000 
     23 N05        29.5140   18.6170   62.8010 N.pl3     1 LQQ         0.0000 
     24 C17        28.8440   17.6710   62.1330 C.ar      1 LQQ         0.0000 
     25 C18        28.2800   17.9460   60.8870 C.ar      1 LQQ         0.0000 
     26 C19        28.4240   19.2200   60.3470 C.ar      1 LQQ         0.0000 
     27 C20        29.1170   20.1840   61.0520 C.ar      1 LQQ         0.0000 
     28 N06        27.5710   16.9530   60.1740 N.pl3     1 LQQ         0.0000 
     29 C21        28.4660   15.8000   59.9060 C.3       1 LQQ         0.0000 
     30 C22        27.7120   14.6830   59.1890 C.3       1 LQQ         0.0000 
     31 N07        27.0440   15.1960   58.0030 N.4       1 LQQ         0.0000 
     32 C23        26.3410   16.4760   58.0250 C.3       1 LQQ         0.0000 
     33 C24        26.9860   17.5260   58.9330 C.3       1 LQQ         0.0000 
     34 H011       34.6670   26.4707   59.0616 H         1 LQQ         0.0000 
     35 H012       35.0547   28.0967   59.7193 H         1 LQQ         0.0000 
     36 H013       34.1712   27.9448   58.1628 H         1 LQQ         0.0000 
     37 H051       33.4767   25.8158   63.5830 H         1 LQQ         0.0000 
     38 H052       32.9331   27.3822   62.8920 H         1 LQQ         0.0000 
     39 H053       34.4483   26.6182   62.3028 H         1 LQQ         0.0000 
     40 H1         32.8870   24.2150   63.9840 H         1 LQQ         0.0000 
     41 H10        29.8007   22.7009   59.3443 H         1 LQQ         0.0000 
     42 H111       28.2291   24.0162   58.4376 H         1 LQQ         0.0000 
     43 H112       29.4013   25.3445   58.1406 H         1 LQQ         0.0000 
     44 H121       28.3671   23.3397   56.2525 H         1 LQQ         0.0000 
     45 H122       29.3921   24.7766   55.9190 H         1 LQQ         0.0000 
     46 H131       30.1640   21.9455   56.0601 H         1 LQQ         0.0000 
     47 H132       31.1371   23.3578   55.5261 H         1 LQQ         0.0000 
     48 H141       32.1388   23.5936   57.6118 H         1 LQQ         0.0000 
     49 H142       31.5614   21.9213   57.9224 H         1 LQQ         0.0000 
     50 H04        30.4642   20.4564   64.0633 H         1 LQQ         0.0000 
     51 H17        28.7390   16.6860   62.5620 H         1 LQQ         0.0000 
     52 H19        27.9970   19.4530   59.3830 H         1 LQQ         0.0000 
     53 H20        29.2310   21.1790   60.6470 H         1 LQQ         0.0000 
     54 H211       29.3038   16.1258   59.2719 H         1 LQQ         0.0000 
     55 H212       28.8564   15.4099   60.8575 H         1 LQQ         0.0000 
     56 H221       28.4204   13.8974   58.8874 H         1 LQQ         0.0000 
     57 H222       26.9577   14.2562   59.8664 H         1 LQQ         0.0000 
     58 H07        27.7790   15.3240   57.1947 H         1 LQQ         0.0000 
     59 H231       26.3151   16.8976   57.0093 H         1 LQQ         0.0000 
     60 H232       25.3128   16.3235   58.3851 H         1 LQQ         0.0000 
     61 H241       26.2078   18.2569   59.1980 H         1 LQQ         0.0000 
     62 H242       27.7754   18.0254   58.3521 H         1 LQQ         0.0000 
     63 H63        26.2675   14.4855   57.6833 H         1 LQQ         0.0000 
     64 H64        29.9449   18.3704   63.7826 H         1 LQQ         0.0000 
@<TRIPOS>BOND
     1    1    2 2    
     2    2    3 1    
     3    2    4 1    
     4    3   34 1    
     5    3   35 1    
     6    3   36 1    
     7    4    5 ar   
     8    4   19 ar   
     9    5    6 1    
    10    5    7 ar   
    11    6   37 1    
    12    6   38 1    
    13    6   39 1    
    14    7    8 ar   
    15    7   12 ar   
    16    8    9 ar   
    17    8   40 1    
    18    9   10 ar   
    19   10   11 ar   
    20   10   21 1    
    21   11   12 ar   
    22   12   13 ar   
    23   13   14 1    
    24   13   19 ar   
    25   14   15 1    
    26   14   18 1    
    27   14   41 1    
    28   15   16 1    
    29   15   42 1    
    30   15   43 1    
    31   16   17 1    
    32   16   44 1    
    33   16   45 1    
    34   17   18 1    
    35   17   46 1    
    36   17   47 1    
    37   18   48 1    
    38   18   49 1    
    39   19   20 2    
    40   21   22 1    
    41   21   50 1    
    42   22   23 ar   
    43   22   27 ar   
    44   23   24 ar   
    45   23   64 1    
    46   24   25 ar   
    47   24   51 1    
    48   25   26 ar   
    49   25   28 1    
    50   26   27 ar   
    51   26   52 1    
    52   27   53 1    
    53   28   29 1    
    54   28   33 1    
    55   29   30 1    
    56   29   54 1    
    57   29   55 1    
    58   30   31 1    
    59   30   56 1    
    60   30   57 1    
    61   31   32 1    
    62   31   58 1    
    63   31   63 1    
    64   32   33 1    
    65   32   59 1    
    66   32   60 1    
    67   33   61 1    
    68   33   62 1    
@<TRIPOS>SUBSTRUCTURE
     1 LQQ         1 GROUP             0       ****    0 ROOT    
@<TRIPOS>MOLECULE
LQQ
63   67    1
SMALL
USER_CHARGES


@<TRIPOS>ATOM
      1 O01        32.4090   28.5440   60.1410 O.2       1 LQQ         0.0000 
      2 C02        33.0080   27.5190   59.9010 C.2       1 LQQ         0.0000 
      3 C01        34.3120   27.5070   59.1620 C.3       1 LQQ         0.0000 
      4 C03        32.4150   26.2120   60.3390 C.ar      1 LQQ         0.0000 
      5 C04        32.6480   25.6900   61.6150 C.ar      1 LQQ         0.0000 
      6 C05        33.4290   26.4260   62.6690 C.3       1 LQQ         0.0000 
      7 C06        31.9290   24.4600   62.0050 C.ar      1 LQQ         0.0000 
      8 C07        32.1990   23.7830   63.2720 C.ar      1 LQQ         0.0000 
      9 N01        31.5880   22.6260   63.5420 N.ar      1 LQQ         0.0000 
     10 C08        30.8720   21.9680   62.6070 C.ar      1 LQQ         0.0000 
     11 N02        30.7030   22.5010   61.3540 N.ar      1 LQQ         0.0000 
     12 C09        31.2660   23.6800   60.9670 C.ar      1 LQQ         0.0000 
     13 N03        31.0700   24.2300   59.7410 N.pl3     1 LQQ         0.0000 
     14 C10        30.2950   23.4750   58.7390 C.3       1 LQQ         0.0000 
     15 C11        29.2130   24.2680   58.0150 C.3       1 LQQ         0.0000 
     16 C12        29.2870   23.8720   56.5360 C.3       1 LQQ         0.0000 
     17 C13        30.5060   22.9550   56.3320 C.3       1 LQQ         0.0000 
     18 C14        31.2520   22.9450   57.6650 C.3       1 LQQ         0.0000 
     19 C15        31.6630   25.4930   59.4060 C.ar      1 LQQ         0.0000 
     20 O02        31.5220   26.0010   58.2620 O.2       1 LQQ         0.0000 
     21 N04        30.3500   20.7760   63.0170 N.pl3     1 LQQ         0.0000 
     22 C16        29.6660   19.8610   62.2880 C.ar      1 LQQ         0.0000 
     23 N05        29.5140   18.6170   62.8010 N.pl3     1 LQQ         0.0000 
     24 C17        28.8440   17.6710   62.1330 C.ar      1 LQQ         0.0000 
     25 C18        28.2800   17.9460   60.8870 C.ar      1 LQQ         0.0000 
     26 C19        28.4240   19.2200   60.3470 C.ar      1 LQQ         0.0000 
     27 C20        29.1170   20.1840   61.0520 C.ar      1 LQQ         0.0000 
     28 N06        27.5710   16.9530   60.1740 N.pl3     1 LQQ         0.0000 
     29 C21        28.4660   15.8000   59.9060 C.3       1 LQQ         0.0000 
     30 C22        27.7120   14.6830   59.1890 C.3       1 LQQ         0.0000 
     31 N07        27.0440   15.1960   58.0030 N.3       1 LQQ         0.0000 
     32 C23        26.3410   16.4760   58.0250 C.3       1 LQQ         0.0000 
     33 C24        26.9860   17.5260   58.9330 C.3       1 LQQ         0.0000 
     34 H011       34.6670   26.4707   59.0616 H         1 LQQ         0.0000 
     35 H012       35.0547   28.0967   59.7193 H         1 LQQ         0.0000 
     36 H013       34.1712   27.9448   58.1628 H         1 LQQ         0.0000 
     37 H051       33.4767   25.8158   63.5830 H         1 LQQ         0.0000 
     38 H052       32.9331   27.3822   62.8920 H         1 LQQ         0.0000 
     39 H053       34.4483   26.6182   62.3028 H         1 LQQ         0.0000 
     40 H1         32.8870   24.2150   63.9840 H         1 LQQ         0.0000 
     41 H10        29.8007   22.7009   59.3443 H         1 LQQ         0.0000 
     42 H111       28.2291   24.0162   58.4376 H         1 LQQ         0.0000 
     43 H112       29.4013   25.3445   58.1406 H         1 LQQ         0.0000 
     44 H121       28.3671   23.3397   56.2525 H         1 LQQ         0.0000 
     45 H122       29.3921   24.7766   55.9190 H         1 LQQ         0.0000 
     46 H131       30.1640   21.9455   56.0601 H         1 LQQ         0.0000 
     47 H132       31.1371   23.3578   55.5261 H         1 LQQ         0.0000 
     48 H141       32.1388   23.5936   57.6118 H         1 LQQ         0.0000 
     49 H142       31.5614   21.9213   57.9224 H         1 LQQ         0.0000 
     50 H04        30.4642   20.4564   64.0633 H         1 LQQ         0.0000 
     51 H17        28.7390   16.6860   62.5620 H         1 LQQ         0.0000 
     52 H19        27.9970   19.4530   59.3830 H         1 LQQ         0.0000 
     53 H20        29.2310   21.1790   60.6470 H         1 LQQ         0.0000 
     54 H211       29.3038   16.1258   59.2719 H         1 LQQ         0.0000 
     55 H212       28.8564   15.4099   60.8575 H         1 LQQ         0.0000 
     56 H221       28.4204   13.8974   58.8874 H         1 LQQ         0.0000 
     57 H222       26.9577   14.2562   59.8664 H         1 LQQ         0.0000 
     58 H07        27.7790   15.3240   57.1947 H         1 LQQ         0.0000 
     59 H231       26.3151   16.8976   57.0093 H         1 LQQ         0.0000 
     60 H232       25.3128   16.3235   58.3851 H         1 LQQ         0.0000 
     61 H241       26.2078   18.2569   59.1980 H         1 LQQ         0.0000 
     62 H242       27.7754   18.0254   58.3521 H         1 LQQ         0.0000 
     63 H63        29.9449   18.3704   63.7826 H         1 LQQ         0.0000 
@<TRIPOS>BOND
     1    1    2 2    
     2    2    3 1    
     3    2    4 1    
     4    3   34 1    
     5    3   35 1    
     6    3   36 1    
     7    4    5 ar   
     8    4   19 ar   
     9    5    6 1    
    10    5    7 ar   
    11    6   37 1    
    12    6   38 1    
    13    6   39 1    
    14    7    8 ar   
    15    7   12 ar   
    16    8    9 ar   
    17    8   40 1    
    18    9   10 ar   
    19   10   11 ar   
    20   10   21 1    
    21   11   12 ar   
    22   12   13 ar   
    23   13   14 1    
    24   13   19 ar   
    25   14   15 1    
    26   14   18 1    
    27   14   41 1    
    28   15   16 1    
    29   15   42 1    
    30   15   43 1    
    31   16   17 1    
    32   16   44 1    
    33   16   45 1    
    34   17   18 1    
    35   17   46 1    
    36   17   47 1    
    37   18   48 1    
    38   18   49 1    
    39   19   20 2    
    40   21   22 1    
    41   21   50 1    
    42   22   23 ar   
    43   22   27 ar   
    44   23   24 ar   
    45   23   63 1    
    46   24   25 ar   
    47   24   51 1    
    48   25   26 ar   
    49   25   28 1    
    50   26   27 ar   
    51   26   52 1    
    52   27   53 1    
    53   28   29 1    
    54   28   33 1    
    55   29   30 1    
    56   29   54 1    
    57   29   55 1    
    58   30   31 1    
    59   30   56 1    
    60   30   57 1    
    61   31   32 1    
    62   31   58 1    
    63   32   33 1    
    64   32   59 1    
    65   32   60 1    
    66   33   61 1    
    67   33   62 1    
@<TRIPOS>SUBSTRUCTURE
     1 LQQ         1 GROUP             0       ****    0 ROOT    
@<TRIPOS>MOLECULE
LQQ
62   66    1
SMALL
USER_CHARGES


@<TRIPOS>ATOM
      1 O01        32.4090   28.5440   60.1410 O.2       1 LQQ         0.0000 
      2 C02        33.0080   27.5190   59.9010 C.2       1 LQQ         0.0000 
      3 C01        34.3120   27.5070   59.1620 C.3       1 LQQ         0.0000 
      4 C03        32.4150   26.2120   60.3390 C.ar      1 LQQ         0.0000 
      5 C04        32.6480   25.6900   61.6150 C.ar      1 LQQ         0.0000 
      6 C05        33.4290   26.4260   62.6690 C.3       1 LQQ         0.0000 
      7 C06        31.9290   24.4600   62.0050 C.ar      1 LQQ         0.0000 
      8 C07        32.1990   23.7830   63.2720 C.ar      1 LQQ         0.0000 
      9 N01        31.5880   22.6260   63.5420 N.ar      1 LQQ         0.0000 
     10 C08        30.8720   21.9680   62.6070 C.ar      1 LQQ         0.0000 
     11 N02        30.7030   22.5010   61.3540 N.ar      1 LQQ         0.0000 
     12 C09        31.2660   23.6800   60.9670 C.ar      1 LQQ         0.0000 
     13 N03        31.0700   24.2300   59.7410 N.pl3     1 LQQ         0.0000 
     14 C10        30.2950   23.4750   58.7390 C.3       1 LQQ         0.0000 
     15 C11        29.2130   24.2680   58.0150 C.3       1 LQQ         0.0000 
     16 C12        29.2870   23.8720   56.5360 C.3       1 LQQ         0.0000 
     17 C13        30.5060   22.9550   56.3320 C.3       1 LQQ         0.0000 
     18 C14        31.2520   22.9450   57.6650 C.3       1 LQQ         0.0000 
     19 C15        31.6630   25.4930   59.4060 C.ar      1 LQQ         0.0000 
     20 O02        31.5220   26.0010   58.2620 O.2       1 LQQ         0.0000 
     21 N04        30.3500   20.7760   63.0170 N.pl3     1 LQQ         0.0000 
     22 C16        29.6660   19.8610   62.2880 C.ar      1 LQQ         0.0000 
     23 N05        29.5140   18.6170   62.8010 N.ar      1 LQQ         0.0000 
     24 C17        28.8440   17.6710   62.1330 C.ar      1 LQQ         0.0000 
     25 C18        28.2800   17.9460   60.8870 C.ar      1 LQQ         0.0000 
     26 C19        28.4240   19.2200   60.3470 C.ar      1 LQQ         0.0000 
     27 C20        29.1170   20.1840   61.0520 C.ar      1 LQQ         0.0000 
     28 N06        27.5710   16.9530   60.1740 N.pl3     1 LQQ         0.0000 
     29 C21        28.4660   15.8000   59.9060 C.3       1 LQQ         0.0000 
     30 C22        27.7120   14.6830   59.1890 C.3       1 LQQ         0.0000 
     31 N07        27.0440   15.1960   58.0030 N.3       1 LQQ         0.0000 
     32 C23        26.3410   16.4760   58.0250 C.3       1 LQQ         0.0000 
     33 C24        26.9860   17.5260   58.9330 C.3       1 LQQ         0.0000 
     34 H011       34.6670   26.4707   59.0616 H         1 LQQ         0.0000 
     35 H012       35.0547   28.0967   59.7193 H         1 LQQ         0.0000 
     36 H013       34.1712   27.9448   58.1628 H         1 LQQ         0.0000 
     37 H051       33.4767   25.8158   63.5830 H         1 LQQ         0.0000 
     38 H052       32.9331   27.3822   62.8920 H         1 LQQ         0.0000 
     39 H053       34.4483   26.6182   62.3028 H         1 LQQ         0.0000 
     40 H1         32.8870   24.2150   63.9840 H         1 LQQ         0.0000 
     41 H10        29.8007   22.7009   59.3443 H         1 LQQ         0.0000 
     42 H111       28.2291   24.0162   58.4376 H         1 LQQ         0.0000 
     43 H112       29.4013   25.3445   58.1406 H         1 LQQ         0.0000 
     44 H121       28.3671   23.3397   56.2525 H         1 LQQ         0.0000 
     45 H122       29.3921   24.7766   55.9190 H         1 LQQ         0.0000 
     46 H131       30.1640   21.9455   56.0601 H         1 LQQ         0.0000 
     47 H132       31.1371   23.3578   55.5261 H         1 LQQ         0.0000 
     48 H141       32.1388   23.5936   57.6118 H         1 LQQ         0.0000 
     49 H142       31.5614   21.9213   57.9224 H         1 LQQ         0.0000 
     50 H04        30.4642   20.4564   64.0633 H         1 LQQ         0.0000 
     51 H17        28.7390   16.6860   62.5620 H         1 LQQ         0.0000 
     52 H19        27.9970   19.4530   59.3830 H         1 LQQ         0.0000 
     53 H20        29.2310   21.1790   60.6470 H         1 LQQ         0.0000 
     54 H211       29.3038   16.1258   59.2719 H         1 LQQ         0.0000 
     55 H212       28.8564   15.4099   60.8575 H         1 LQQ         0.0000 
     56 H221       28.4204   13.8974   58.8874 H         1 LQQ         0.0000 
     57 H222       26.9577   14.2562   59.8664 H         1 LQQ         0.0000 
     58 H07        27.7790   15.3240   57.1947 H         1 LQQ         0.0000 
     59 H231       26.3151   16.8976   57.0093 H         1 LQQ         0.0000 
     60 H232       25.3128   16.3235   58.3851 H         1 LQQ         0.0000 
     61 H241       26.2078   18.2569   59.1980 H         1 LQQ         0.0000 
     62 H242       27.7754   18.0254   58.3521 H         1 LQQ         0.0000 
@<TRIPOS>BOND
     1    1    2 2    
     2    2    3 1    
     3    2    4 1    
     4    3   34 1    
     5    3   35 1    
     6    3   36 1    
     7    4    5 ar   
     8    4   19 ar   
     9    5    6 1    
    10    5    7 ar   
    11    6   37 1    
    12    6   38 1    
    13    6   39 1    
    14    7    8 ar   
    15    7   12 ar   
    16    8    9 ar   
    17    8   40 1    
    18    9   10 ar   
    19   10   11 ar   
    20   10   21 1    
    21   11   12 ar   
    22   12   13 ar   
    23   13   14 1    
    24   13   19 ar   
    25   14   15 1    
    26   14   18 1    
    27   14   41 1    
    28   15   16 1    
    29   15   42 1    
    30   15   43 1    
    31   16   17 1    
    32   16   44 1    
    33   16   45 1    
    34   17   18 1    
    35   17   46 1    
    36   17   47 1    
    37   18   48 1    
    38   18   49 1    
    39   19   20 2    
    40   21   22 1    
    41   21   50 1    
    42   22   23 ar   
    43   22   27 ar   
    44   23   24 ar   
    45   24   25 ar   
    46   24   51 1    
    47   25   26 ar   
    48   25   28 1    
    49   26   27 ar   
    50   26   52 1    
    51   27   53 1    
    52   28   29 1    
    53   28   33 1    
    54   29   30 1    
    55   29   54 1    
    56   29   55 1    
    57   30   31 1    
    58   30   56 1    
    59   30   57 1    
    60   31   32 1    
    61   31   58 1    
    62   32   33 1    
    63   32   59 1    
    64   32   60 1    
    65   33   61 1    
    66   33   62 1    
@<TRIPOS>SUBSTRUCTURE
     1 LQQ         1 GROUP             0       ****    0 ROOT    
