@<TRIPOS>MOLECULE
4-methyl-~{N}-[3-(4-methylimidazol-1-yl)-5-(trifluoromethyl)phenyl]-3-[[4-(3-pyridyl)pyrimidin-2-yl]amino]benzamide
   61    65     1     0     0
SMALL
USER_CHARGES

@<TRIPOS>ATOM
      1 O17        27.4370    2.8950   51.2430 O.2       1 NIL        -0.5818
      2 C16        27.1160    2.6680   52.3840 C.2       1 NIL         0.6911
      3 N14        26.0130    3.0980   53.0150 N.am      1 NIL        -0.4717
      4 C11        25.1140    4.0420   52.5350 C.ar      1 NIL         0.1054
      5 C9         24.3180    4.8060   53.4240 C.ar      1 NIL        -0.1759
      6 C8         23.4180    5.7650   52.9510 C.ar      1 NIL         0.0642
      7 N51        22.6560    6.5560   53.8240 N.pl3     1 NIL        -0.1490
      8 C56        22.3140    6.3130   55.1530 C.ar      1 NIL        -0.2495
      9 C55        21.4970    7.3060   55.5670 C.ar      1 NIL         0.3180
     10 C58        20.8800    7.4930   56.9320 C.3       1 NIL        -0.1176
     11 N54        21.3460    8.1740   54.5420 N.ar      1 NIL        -0.6550
     12 C52        22.0110    7.6890   53.5220 C.ar      1 NIL         0.4159
     13 C6         23.2420    5.9220   51.5800 C.ar      1 NIL        -0.1460
     14 C12        24.8860    4.1760   51.1480 C.ar      1 NIL        -0.1663
     15 C5         23.9850    5.1690   50.6680 C.ar      1 NIL        -0.1086
     16 C2         23.8080    5.3300   49.1930 C.3       1 NIL         0.6861
     17 F4         23.7250    4.1770   48.5000 F         1 NIL        -0.2341
     18 F3         22.6440    5.9040   48.9120 F         1 NIL        -0.2341
     19 F1         24.8490    5.9670   48.6180 F         1 NIL        -0.2341
     20 C18        27.8680    1.5870   53.0510 C.ar      1 NIL        -0.1462
     21 C25        27.5140    1.0020   54.2760 C.ar      1 NIL        -0.1089
     22 C23        28.2050   -0.1000   54.7820 C.ar      1 NIL        -0.1335
     23 C22        29.2140   -0.7110   54.0550 C.ar      1 NIL        -0.0250
     24 C27        29.9540   -1.9170   54.6160 C.3       1 NIL        -0.0604
     25 C21        29.5010   -0.1980   52.7910 C.ar      1 NIL         0.1434
     26 C19        28.8130    0.9240   52.3120 C.ar      1 NIL        -0.0958
     27 N31        30.6200   -0.6930   52.1090 N.pl3     1 NIL        -0.7455
     28 C33        31.8450   -0.0340   52.2300 C.ar      1 NIL         0.8877
     29 N40        32.1570    1.0110   52.9860 N.ar      1 NIL        -0.7322
     30 C38        33.4140    1.4820   52.8790 C.ar      1 NIL         0.4606
     31 C36        34.3070    0.9710   52.0170 C.ar      1 NIL        -0.4068
     32 C35        33.9360   -0.0810   51.2560 C.ar      1 NIL         0.5363
     33 N34        32.7080   -0.6040   51.3500 N.ar      1 NIL        -0.7457
     34 C41        34.8530   -0.7620   50.3050 C.ar      1 NIL        -0.2744
     35 C49        36.1840   -0.3460   50.1410 C.ar      1 NIL        -0.0692
     36 C47        36.9880   -1.0040   49.2190 C.ar      1 NIL        -0.2507
     37 C45        36.4440   -2.0750   48.5110 C.ar      1 NIL         0.4054
     38 N44        35.1680   -2.4770   48.6290 N.ar      1 NIL        -0.6661
     39 C42        34.4000   -1.8440   49.5250 C.ar      1 NIL         0.4315
     40 HN14       25.7541    2.6960   54.0056 H         1 NIL         0.3256
     41 H9         24.4090    4.6440   54.4880 H         1 NIL         0.1872
     42 H56        22.6450    5.4750   55.7490 H         1 NIL         0.1813
     43 H58        20.2653    8.4052   56.9347 H         1 NIL         0.0495
     44 H58A       21.6766    7.5854   57.6849 H         1 NIL         0.0495
     45 H58B       20.2485    6.6246   57.1710 H         1 NIL         0.0495
     46 H52        22.0360    8.1520   52.5470 H         1 NIL         0.0749
     47 H6         22.5200    6.6370   51.2150 H         1 NIL         0.1613
     48 H12        25.3950    3.5260   50.4520 H         1 NIL         0.1510
     49 H25        26.6890    1.4130   54.8390 H         1 NIL         0.1356
     50 H23        27.9480   -0.4840   55.7580 H         1 NIL         0.1426
     51 H27        30.7113   -2.2519   53.8919 H         1 NIL         0.0559
     52 H27A       29.2390   -2.7319   54.8022 H         1 NIL         0.0559
     53 H27B       30.4465   -1.6387   55.5594 H         1 NIL         0.0559
     54 H19        29.0370    1.2820   51.3180 H         1 NIL         0.1619
     55 HN31       30.5293   -1.5939   51.4844 H         1 NIL         0.4606
     56 H38        33.7160    2.3040   53.5120 H         1 NIL         0.0300
     57 H36        35.2980    1.3910   51.9340 H         1 NIL         0.1597
     58 H49        36.5770    0.4740   50.7240 H         1 NIL         0.1442
     59 H47        38.0090   -0.6940   49.0550 H         1 NIL         0.1472
     60 H45        37.0860   -2.6120   47.8280 H         1 NIL         0.0256
     61 H42        33.3820   -2.1800   49.6560 H         1 NIL         0.0337
@<TRIPOS>BOND
     1    1    2 2
     2    2    3 am
     3    2   20 1
     4    3    4 1
     5    3   40 1
     6    4    5 ar
     7    4   14 ar
     8    5    6 ar
     9    5   41 1
    10    6    7 1
    11    6   13 ar
    12    7    8 ar
    13    7   12 ar
    14    8    9 ar
    15    8   42 1
    16    9   10 1
    17    9   11 ar
    18   10   43 1
    19   10   44 1
    20   10   45 1
    21   11   12 ar
    22   12   46 1
    23   13   15 ar
    24   13   47 1
    25   14   15 ar
    26   14   48 1
    27   15   16 1
    28   16   17 1
    29   16   18 1
    30   16   19 1
    31   20   21 ar
    32   20   26 ar
    33   21   22 ar
    34   21   49 1
    35   22   23 ar
    36   22   50 1
    37   23   24 1
    38   23   25 ar
    39   24   51 1
    40   24   52 1
    41   24   53 1
    42   25   26 ar
    43   25   27 1
    44   26   54 1
    45   27   28 1
    46   27   55 1
    47   28   29 ar
    48   28   33 ar
    49   29   30 ar
    50   30   31 ar
    51   30   56 1
    52   31   32 ar
    53   31   57 1
    54   32   33 ar
    55   32   34 1
    56   34   35 ar
    57   34   39 ar
    58   35   36 ar
    59   35   58 1
    60   36   37 ar
    61   36   59 1
    62   37   38 ar
    63   37   60 1
    64   38   39 ar
    65   39   61 1
@<TRIPOS>SUBSTRUCTURE
     1 NIL         1 GROUP   0 A     ****
@<TRIPOS>MOLECULE
4-methyl-~{N}-[3-(5-methyl-1,2-dihydroimidazol-2-ylium-3-yl)-5-(trifluoromethyl)phenyl]-3-[[4-(3-pyridyl)pyrimidin-2-yl]amino]benzamide
   62    66     1     0     0
SMALL
USER_CHARGES

@<TRIPOS>ATOM
      1 O17        27.4370    2.8950   51.2430 O.2       1 NIL        -0.5529
      2 C16        27.1160    2.6680   52.3840 C.2       1 NIL         0.6947
      3 N14        26.0130    3.0980   53.0150 N.am      1 NIL        -0.4726
      4 C11        25.1140    4.0420   52.5350 C.ar      1 NIL         0.1285
      5 C9         24.3180    4.8060   53.4240 C.ar      1 NIL        -0.1783
      6 C8         23.4180    5.7650   52.9510 C.ar      1 NIL         0.1116
      7 N51        22.6560    6.5560   53.8240 N.pl3     1 NIL        -0.2635
      8 C56        22.3140    6.3130   55.1530 C.ar      1 NIL        -0.0263
      9 C55        21.4970    7.3060   55.5670 C.ar      1 NIL         0.0673
     10 C58        20.8800    7.4930   56.9320 C.3       1 NIL        -0.0645
     11 N54        21.3460    8.1740   54.5420 N.pl3     1 NIL        -0.5101
     12 C52        22.0110    7.6890   53.5220 C.cat     1 NIL         0.1915
     13 C6         23.2420    5.9220   51.5800 C.ar      1 NIL        -0.1318
     14 C12        24.8860    4.1760   51.1480 C.ar      1 NIL        -0.0925
     15 C5         23.9850    5.1690   50.6680 C.ar      1 NIL        -0.1109
     16 C2         23.8080    5.3300   49.1930 C.3       1 NIL         0.6905
     17 F4         23.7250    4.1770   48.5000 F         1 NIL        -0.2196
     18 F3         22.6440    5.9040   48.9120 F         1 NIL        -0.2196
     19 F1         24.8490    5.9670   48.6180 F         1 NIL        -0.2196
     20 C18        27.8680    1.5870   53.0510 C.ar      1 NIL        -0.1562
     21 C25        27.5140    1.0020   54.2760 C.ar      1 NIL        -0.1171
     22 C23        28.2050   -0.1000   54.7820 C.ar      1 NIL        -0.1300
     23 C22        29.2140   -0.7110   54.0550 C.ar      1 NIL        -0.0130
     24 C27        29.9540   -1.9170   54.6160 C.3       1 NIL        -0.0642
     25 C21        29.5010   -0.1980   52.7910 C.ar      1 NIL         0.1529
     26 C19        28.8130    0.9240   52.3120 C.ar      1 NIL        -0.0996
     27 N31        30.6200   -0.6930   52.1090 N.pl3     1 NIL        -0.7393
     28 C33        31.8450   -0.0340   52.2300 C.ar      1 NIL         0.8718
     29 N40        32.1570    1.0110   52.9860 N.ar      1 NIL        -0.7350
     30 C38        33.4140    1.4820   52.8790 C.ar      1 NIL         0.4582
     31 C36        34.3070    0.9710   52.0170 C.ar      1 NIL        -0.3892
     32 C35        33.9360   -0.0810   51.2560 C.ar      1 NIL         0.5370
     33 N34        32.7080   -0.6040   51.3500 N.ar      1 NIL        -0.7340
     34 C41        34.8530   -0.7620   50.3050 C.ar      1 NIL        -0.2842
     35 C49        36.1840   -0.3460   50.1410 C.ar      1 NIL        -0.0549
     36 C47        36.9880   -1.0040   49.2190 C.ar      1 NIL        -0.2495
     37 C45        36.4440   -2.0750   48.5110 C.ar      1 NIL         0.4096
     38 N44        35.1680   -2.4770   48.6290 N.ar      1 NIL        -0.6601
     39 C42        34.4000   -1.8440   49.5250 C.ar      1 NIL         0.4206
     40 HN14       25.7541    2.6960   54.0056 H         1 NIL         0.3301
     41 H9         24.4090    4.6440   54.4880 H         1 NIL         0.1468
     42 H56        22.6450    5.4750   55.7490 H         1 NIL         0.2284
     43 H58        20.2653    8.4052   56.9347 H         1 NIL         0.0897
     44 H58A       21.6766    7.5854   57.6849 H         1 NIL         0.0897
     45 H58B       20.2485    6.6246   57.1710 H         1 NIL         0.0897
     46 H52        22.0360    8.1520   52.5470 H         1 NIL         0.2616
     47 H6         22.5200    6.6370   51.2150 H         1 NIL         0.1575
     48 H12        25.3950    3.5260   50.4520 H         1 NIL         0.2188
     49 H25        26.6890    1.4130   54.8390 H         1 NIL         0.1252
     50 H23        27.9480   -0.4840   55.7580 H         1 NIL         0.1453
     51 H27        30.7113   -2.2519   53.8919 H         1 NIL         0.0615
     52 H27A       29.2390   -2.7319   54.8022 H         1 NIL         0.0615
     53 H27B       30.4465   -1.6387   55.5594 H         1 NIL         0.0615
     54 H19        29.0370    1.2820   51.3180 H         1 NIL         0.1614
     55 HN31       30.5293   -1.5939   51.4844 H         1 NIL         0.4543
     56 H38        33.7160    2.3040   53.5120 H         1 NIL         0.0337
     57 H36        35.2980    1.3910   51.9340 H         1 NIL         0.1669
     58 H49        36.5770    0.4740   50.7240 H         1 NIL         0.1488
     59 H47        38.0090   -0.6940   49.0550 H         1 NIL         0.1503
     60 H45        37.0860   -2.6120   47.8280 H         1 NIL         0.0297
     61 H42        33.3820   -2.1800   49.6560 H         1 NIL         0.0283
     62 H62        20.7456    9.0857   54.6773 H         1 NIL         0.5135
@<TRIPOS>BOND
     1    1    2 2
     2    2    3 am
     3    2   20 1
     4    3    4 1
     5    3   40 1
     6    4    5 ar
     7    4   14 ar
     8    5    6 ar
     9    5   41 1
    10    6    7 1
    11    6   13 ar
    12    7    8 ar
    13    7   12 ar
    14    8    9 ar
    15    8   42 1
    16    9   10 1
    17    9   11 ar
    18   10   43 1
    19   10   44 1
    20   10   45 1
    21   11   12 ar
    22   11   62 1
    23   12   46 1
    24   13   15 ar
    25   13   47 1
    26   14   15 ar
    27   14   48 1
    28   15   16 1
    29   16   17 1
    30   16   18 1
    31   16   19 1
    32   20   21 ar
    33   20   26 ar
    34   21   22 ar
    35   21   49 1
    36   22   23 ar
    37   22   50 1
    38   23   24 1
    39   23   25 ar
    40   24   51 1
    41   24   52 1
    42   24   53 1
    43   25   26 ar
    44   25   27 1
    45   26   54 1
    46   27   28 1
    47   27   55 1
    48   28   29 ar
    49   28   33 ar
    50   29   30 ar
    51   30   31 ar
    52   30   56 1
    53   31   32 ar
    54   31   57 1
    55   32   33 ar
    56   32   34 1
    57   34   35 ar
    58   34   39 ar
    59   35   36 ar
    60   35   58 1
    61   36   37 ar
    62   36   59 1
    63   37   38 ar
    64   37   60 1
    65   38   39 ar
    66   39   61 1
@<TRIPOS>SUBSTRUCTURE
     1 NIL         1 GROUP   0 A     ****
@<TRIPOS>MOLECULE
3-[[4-(1,2-dihydropyridin-2-ylium-5-yl)pyrimidin-2-yl]amino]-4-methyl-~{N}-[3-(4-methylimidazol-1-yl)-5-(trifluoromethyl)phenyl]benzamide
   62    66     1     0     0
SMALL
USER_CHARGES

@<TRIPOS>ATOM
      1 O17        27.4370    2.8950   51.2430 O.2       1 NIL        -0.5821
      2 C16        27.1160    2.6680   52.3840 C.2       1 NIL         0.6864
      3 N14        26.0130    3.0980   53.0150 N.am      1 NIL        -0.4646
      4 C11        25.1140    4.0420   52.5350 C.ar      1 NIL         0.0942
      5 C9         24.3180    4.8060   53.4240 C.ar      1 NIL        -0.1738
      6 C8         23.4180    5.7650   52.9510 C.ar      1 NIL         0.0668
      7 N51        22.6560    6.5560   53.8240 N.pl3     1 NIL        -0.1521
      8 C56        22.3140    6.3130   55.1530 C.ar      1 NIL        -0.2477
      9 C55        21.4970    7.3060   55.5670 C.ar      1 NIL         0.3234
     10 C58        20.8800    7.4930   56.9320 C.3       1 NIL        -0.1202
     11 N54        21.3460    8.1740   54.5420 N.ar      1 NIL        -0.6527
     12 C52        22.0110    7.6890   53.5220 C.ar      1 NIL         0.4141
     13 C6         23.2420    5.9220   51.5800 C.ar      1 NIL        -0.1411
     14 C12        24.8860    4.1760   51.1480 C.ar      1 NIL        -0.1600
     15 C5         23.9850    5.1690   50.6680 C.ar      1 NIL        -0.1077
     16 C2         23.8080    5.3300   49.1930 C.3       1 NIL         0.6864
     17 F4         23.7250    4.1770   48.5000 F         1 NIL        -0.2314
     18 F3         22.6440    5.9040   48.9120 F         1 NIL        -0.2314
     19 F1         24.8490    5.9670   48.6180 F         1 NIL        -0.2314
     20 C18        27.8680    1.5870   53.0510 C.ar      1 NIL        -0.1379
     21 C25        27.5140    1.0020   54.2760 C.ar      1 NIL        -0.0936
     22 C23        28.2050   -0.1000   54.7820 C.ar      1 NIL        -0.1302
     23 C22        29.2140   -0.7110   54.0550 C.ar      1 NIL        -0.0227
     24 C27        29.9540   -1.9170   54.6160 C.3       1 NIL        -0.0609
     25 C21        29.5010   -0.1980   52.7910 C.ar      1 NIL         0.1113
     26 C19        28.8130    0.9240   52.3120 C.ar      1 NIL        -0.0870
     27 N31        30.6200   -0.6930   52.1090 N.pl3     1 NIL        -0.7195
     28 C33        31.8450   -0.0340   52.2300 C.ar      1 NIL         0.9108
     29 N40        32.1570    1.0110   52.9860 N.ar      1 NIL        -0.6974
     30 C38        33.4140    1.4820   52.8790 C.ar      1 NIL         0.4842
     31 C36        34.3070    0.9710   52.0170 C.ar      1 NIL        -0.4037
     32 C35        33.9360   -0.0810   51.2560 C.ar      1 NIL         0.4807
     33 N34        32.7080   -0.6040   51.3500 N.ar      1 NIL        -0.7700
     34 C41        34.8530   -0.7620   50.3050 C.ar      1 NIL        -0.1334
     35 C49        36.1840   -0.3460   50.1410 C.ar      1 NIL         0.0072
     36 C47        36.9880   -1.0040   49.2190 C.ar      1 NIL        -0.1372
     37 C45        36.4440   -2.0750   48.5110 C.cat     1 NIL         0.0786
     38 N44        35.1680   -2.4770   48.6290 N.pl3     1 NIL        -0.4499
     39 C42        34.4000   -1.8440   49.5250 C.ar      1 NIL         0.1081
     40 HN14       25.7541    2.6960   54.0056 H         1 NIL         0.3255
     41 H9         24.4090    4.6440   54.4880 H         1 NIL         0.1847
     42 H56        22.6450    5.4750   55.7490 H         1 NIL         0.1836
     43 H58        20.2653    8.4052   56.9347 H         1 NIL         0.0522
     44 H58A       21.6766    7.5854   57.6849 H         1 NIL         0.0522
     45 H58B       20.2485    6.6246   57.1710 H         1 NIL         0.0522
     46 H52        22.0360    8.1520   52.5470 H         1 NIL         0.0705
     47 H6         22.5200    6.6370   51.2150 H         1 NIL         0.1658
     48 H12        25.3950    3.5260   50.4520 H         1 NIL         0.1514
     49 H25        26.6890    1.4130   54.8390 H         1 NIL         0.1469
     50 H23        27.9480   -0.4840   55.7580 H         1 NIL         0.1513
     51 H27        30.7113   -2.2519   53.8919 H         1 NIL         0.0550
     52 H27A       29.2390   -2.7319   54.8022 H         1 NIL         0.0550
     53 H27B       30.4465   -1.6387   55.5594 H         1 NIL         0.0550
     54 H19        29.0370    1.2820   51.3180 H         1 NIL         0.1627
     55 HN31       30.5293   -1.5939   51.4844 H         1 NIL         0.4632
     56 H38        33.7160    2.3040   53.5120 H         1 NIL         0.0522
     57 H36        35.2980    1.3910   51.9340 H         1 NIL         0.1630
     58 H49        36.5770    0.4740   50.7240 H         1 NIL         0.2002
     59 H47        38.0090   -0.6940   49.0550 H         1 NIL         0.2043
     60 H45        37.0860   -2.6120   47.8280 H         1 NIL         0.2146
     61 H42        33.3820   -2.1800   49.6560 H         1 NIL         0.2246
     62 H62        34.7898   -3.2980   48.0022 H         1 NIL         0.5011
@<TRIPOS>BOND
     1    1    2 2
     2    2    3 am
     3    2   20 1
     4    3    4 1
     5    3   40 1
     6    4    5 ar
     7    4   14 ar
     8    5    6 ar
     9    5   41 1
    10    6    7 1
    11    6   13 ar
    12    7    8 ar
    13    7   12 ar
    14    8    9 ar
    15    8   42 1
    16    9   10 1
    17    9   11 ar
    18   10   43 1
    19   10   44 1
    20   10   45 1
    21   11   12 ar
    22   12   46 1
    23   13   15 ar
    24   13   47 1
    25   14   15 ar
    26   14   48 1
    27   15   16 1
    28   16   17 1
    29   16   18 1
    30   16   19 1
    31   20   21 ar
    32   20   26 ar
    33   21   22 ar
    34   21   49 1
    35   22   23 ar
    36   22   50 1
    37   23   24 1
    38   23   25 ar
    39   24   51 1
    40   24   52 1
    41   24   53 1
    42   25   26 ar
    43   25   27 1
    44   26   54 1
    45   27   28 1
    46   27   55 1
    47   28   29 ar
    48   28   33 ar
    49   29   30 ar
    50   30   31 ar
    51   30   56 1
    52   31   32 ar
    53   31   57 1
    54   32   33 ar
    55   32   34 1
    56   34   35 ar
    57   34   39 ar
    58   35   36 ar
    59   35   58 1
    60   36   37 ar
    61   36   59 1
    62   37   38 ar
    63   37   60 1
    64   38   39 ar
    65   38   62 1
    66   39   61 1
@<TRIPOS>SUBSTRUCTURE
     1 NIL         1 GROUP   0 A     ****
