@<TRIPOS>MOLECULE
4-[[2-[4-chloro-3-(trifluoromethyl)anilino]-3~{H}-benzimidazol-5-yl]oxy]-~{N}-methyl-pyridine-2-carboxamide
   47    50     1     0     0
SMALL
USER_CHARGES

@<TRIPOS>ATOM
      1 C1         67.0220   90.6190   42.4480 C.ar      1 276        -0.2678
      2 C2         66.8250   90.0640   41.1750 C.ar      1 276         0.4118
      3 N3         67.8350   89.9260   40.2650 N.ar      1 276        -0.6788
      4 C4         69.0930   90.3430   40.6020 C.ar      1 276         0.3727
      5 C5         69.3660   90.9030   41.8450 C.ar      1 276        -0.1978
      6 C6         68.3340   91.0500   42.7830 C.ar      1 276         0.1285
      7 C10        70.2120   90.2100   39.6450 C.2       1 276         0.5707
      8 O11        71.3040   90.7980   39.7750 O.2       1 276        -0.6059
      9 N12        69.9370   89.3780   38.6010 N.am      1 276        -0.5566
     10 C13        70.9310   89.1270   37.5570 C.3       1 276         0.0831
     11 O17        68.7650   91.6190   43.9810 O.3       1 276        -0.2444
     12 C18        67.9410   92.1250   44.9770 C.ar      1 276         0.0976
     13 C19        67.2230   93.3370   44.8210 C.ar      1 276        -0.1359
     14 C20        66.4540   93.8150   45.8690 C.ar      1 276         0.0684
     15 C21        66.3840   93.0840   47.1060 C.ar      1 276         0.0827
     16 C22        67.0790   91.9000   47.2570 C.ar      1 276        -0.0625
     17 C23        67.8620   91.4110   46.1940 C.ar      1 276        -0.1694
     18 N27        65.6710   94.9350   46.0210 N.pl3     1 276        -0.7100
     19 C28        65.1660   94.8930   47.2630 C.ar      1 276         0.7653
     20 N29        65.5680   93.8040   47.9380 N.ar      1 276        -0.6025
     21 N32        64.2820   95.9030   47.8620 N.pl3     1 276        -0.7086
     22 C33        63.2770   96.6090   47.2720 C.ar      1 276         0.1841
     23 C34        62.8180   97.7120   47.9910 C.ar      1 276        -0.1524
     24 C35        61.7760   98.5450   47.5260 C.ar      1 276        -0.1267
     25 C36        61.1880   98.2100   46.2550 C.ar      1 276         0.0256
     26 C37        61.6440   97.0950   45.5090 C.ar      1 276        -0.1015
     27 C38        62.6890   96.2950   46.0200 C.ar      1 276        -0.1221
     28 C43        61.3450   99.7240   48.3940 C.3       1 276         0.6917
     29 CL44       59.8900   99.1210   45.5280 Cl        1 276        -0.0562
     30 F45        60.1520   99.4120   48.8550 F         1 276        -0.2319
     31 F46        61.2950  100.8240   47.6670 F         1 276        -0.2319
     32 F47        62.2040   99.9190   49.4030 F         1 276        -0.2319
     33 H1         66.2060   90.7150   43.1490 H         1 276         0.1630
     34 H2         65.8340   89.7320   40.9030 H         1 276         0.0278
     35 H5         70.3690   91.2230   42.0870 H         1 276         0.1879
     36 HN12       68.9513   88.8923   38.5502 H         1 276         0.3303
     37 H131       70.5138   88.4327   36.8128 H         1 276         0.0441
     38 H132       71.8317   88.6842   38.0072 H         1 276         0.0441
     39 H133       71.1947   90.0755   37.0662 H         1 276         0.0441
     40 H19        67.2750   93.8840   43.8910 H         1 276         0.1565
     41 H22        67.0220   91.3520   48.1860 H         1 276         0.1559
     42 H23        68.4050   90.4850   46.3090 H         1 276         0.1510
     43 HN27       65.5675   95.6504   45.1919 H         1 276         0.4631
     44 HN32       64.3931   96.1714   48.9229 H         1 276         0.4457
     45 H34        63.2780   97.9390   48.9420 H         1 276         0.1536
     46 H37        61.1950   96.8590   44.5560 H         1 276         0.1597
     47 H38        63.0410   95.4430   45.4570 H         1 276         0.1857
@<TRIPOS>BOND
     1    1    6 ar
     2    1   33 1
     3    1    2 ar
     4    2   34 1
     5    2    3 ar
     6    3    4 ar
     7    4    5 ar
     8    4    7 1
     9    5    6 ar
    10    5   35 1
    11    6   11 1
    12    7    8 2
    13    7    9 am
    14    9   36 1
    15    9   10 1
    16   10   37 1
    17   10   38 1
    18   10   39 1
    19   11   12 1
    20   12   17 ar
    21   12   13 ar
    22   13   14 ar
    23   13   40 1
    24   14   18 ar
    25   14   15 ar
    26   15   16 ar
    27   15   20 ar
    28   16   41 1
    29   16   17 ar
    30   17   42 1
    31   18   19 ar
    32   18   43 1
    33   19   21 1
    34   19   20 ar
    35   21   44 1
    36   21   22 1
    37   22   23 ar
    38   22   27 ar
    39   23   45 1
    40   23   24 ar
    41   24   28 1
    42   24   25 ar
    43   25   26 ar
    44   25   29 1
    45   26   27 ar
    46   26   46 1
    47   27   47 1
    48   28   30 1
    49   28   32 1
    50   28   31 1
@<TRIPOS>SUBSTRUCTURE
     1 276         1 GROUP   0 A     ****
@<TRIPOS>MOLECULE
4-[[2-[4-chloro-3-(trifluoromethyl)anilino]-1~{H}-benzimidazol-5-yl]oxy]-~{N}-methyl-pyridine-2-carboxamide
   47    50     1     0     0
SMALL
USER_CHARGES

@<TRIPOS>ATOM
      1 C1         67.0220   90.6190   42.4480 C.ar      1 276        -0.2686
      2 C2         66.8250   90.0640   41.1750 C.ar      1 276         0.4112
      3 N3         67.8350   89.9260   40.2650 N.ar      1 276        -0.6805
      4 C4         69.0930   90.3430   40.6020 C.ar      1 276         0.3711
      5 C5         69.3660   90.9030   41.8450 C.ar      1 276        -0.1969
      6 C6         68.3340   91.0500   42.7830 C.ar      1 276         0.1294
      7 C10        70.2120   90.2100   39.6450 C.2       1 276         0.5704
      8 O11        71.3040   90.7980   39.7750 O.2       1 276        -0.6062
      9 N12        69.9370   89.3780   38.6010 N.am      1 276        -0.5553
     10 C13        70.9310   89.1270   37.5570 C.3       1 276         0.0821
     11 O17        68.7650   91.6190   43.9810 O.3       1 276        -0.2425
     12 C18        67.9410   92.1250   44.9770 C.ar      1 276         0.0736
     13 C19        67.2230   93.3370   44.8210 C.ar      1 276        -0.0827
     14 C20        66.4540   93.8150   45.8690 C.ar      1 276         0.1067
     15 C21        66.3840   93.0840   47.1060 C.ar      1 276         0.0435
     16 C22        67.0790   91.9000   47.2570 C.ar      1 276        -0.1117
     17 C23        67.8620   91.4110   46.1940 C.ar      1 276        -0.1480
     18 N27        65.6710   94.9350   46.0210 N.ar      1 276        -0.6038
     19 C28        65.1660   94.8930   47.2630 C.ar      1 276         0.7710
     20 N29        65.5680   93.8040   47.9380 N.pl3     1 276        -0.7101
     21 N32        64.2820   95.9030   47.8620 N.pl3     1 276        -0.7108
     22 C33        63.2770   96.6090   47.2720 C.ar      1 276         0.1845
     23 C34        62.8180   97.7120   47.9910 C.ar      1 276        -0.1526
     24 C35        61.7760   98.5450   47.5260 C.ar      1 276        -0.1269
     25 C36        61.1880   98.2100   46.2550 C.ar      1 276         0.0257
     26 C37        61.6440   97.0950   45.5090 C.ar      1 276        -0.1007
     27 C38        62.6890   96.2950   46.0200 C.ar      1 276        -0.1225
     28 C43        61.3450   99.7240   48.3940 C.3       1 276         0.6919
     29 CL44       59.8900   99.1210   45.5280 Cl        1 276        -0.0558
     30 F45        60.1520   99.4120   48.8550 F         1 276        -0.2318
     31 F46        61.2950  100.8240   47.6670 F         1 276        -0.2318
     32 F47        62.2040   99.9190   49.4030 F         1 276        -0.2318
     33 H1         66.2060   90.7150   43.1490 H         1 276         0.1621
     34 H2         65.8340   89.7320   40.9030 H         1 276         0.0279
     35 H5         70.3690   91.2230   42.0870 H         1 276         0.1876
     36 HN12       68.9513   88.8923   38.5502 H         1 276         0.3316
     37 H131       70.5138   88.4327   36.8128 H         1 276         0.0438
     38 H132       71.8317   88.6842   38.0072 H         1 276         0.0438
     39 H133       71.1947   90.0755   37.0662 H         1 276         0.0438
     40 H19        67.2750   93.8840   43.8910 H         1 276         0.1679
     41 H22        67.0220   91.3520   48.1860 H         1 276         0.1429
     42 H23        68.4050   90.4850   46.3090 H         1 276         0.1513
     43 HN32       64.3931   96.1714   48.9229 H         1 276         0.4463
     44 H34        63.2780   97.9390   48.9420 H         1 276         0.1534
     45 H37        61.1950   96.8590   44.5560 H         1 276         0.1605
     46 H38        63.0410   95.4430   45.4570 H         1 276         0.1851
     47 H47        65.3613   93.4405   48.9554 H         1 276         0.4624
@<TRIPOS>BOND
     1    1    6 ar
     2    1   33 1
     3    1    2 ar
     4    2   34 1
     5    2    3 ar
     6    3    4 ar
     7    4    5 ar
     8    4    7 1
     9    5    6 ar
    10    5   35 1
    11    6   11 1
    12    7    8 2
    13    7    9 am
    14    9   36 1
    15    9   10 1
    16   10   37 1
    17   10   38 1
    18   10   39 1
    19   11   12 1
    20   12   17 ar
    21   12   13 ar
    22   13   14 ar
    23   13   40 1
    24   14   18 ar
    25   14   15 ar
    26   15   16 ar
    27   15   20 ar
    28   16   41 1
    29   16   17 ar
    30   17   42 1
    31   18   19 ar
    32   19   21 1
    33   19   20 ar
    34   20   47 1
    35   21   43 1
    36   21   22 1
    37   22   23 ar
    38   22   27 ar
    39   23   44 1
    40   23   24 ar
    41   24   28 1
    42   24   25 ar
    43   25   26 ar
    44   25   29 1
    45   26   27 ar
    46   26   45 1
    47   27   46 1
    48   28   30 1
    49   28   32 1
    50   28   31 1
@<TRIPOS>SUBSTRUCTURE
     1 276         1 GROUP   0 A     ****
@<TRIPOS>MOLECULE
4-[[2-[4-chloro-3-(trifluoromethyl)anilino]-1,3-dihydrobenzimidazol-2-ylium-5-yl]oxy]-~{N}-methyl-pyridine-2-carboxamide
   48    51     1     0     0
SMALL
USER_CHARGES

@<TRIPOS>ATOM
      1 C1         67.0220   90.6190   42.4480 C.ar      1 276        -0.2729
      2 C2         66.8250   90.0640   41.1750 C.ar      1 276         0.4173
      3 N3         67.8350   89.9260   40.2650 N.ar      1 276        -0.6532
      4 C4         69.0930   90.3430   40.6020 C.ar      1 276         0.3848
      5 C5         69.3660   90.9030   41.8450 C.ar      1 276        -0.1869
      6 C6         68.3340   91.0500   42.7830 C.ar      1 276         0.0979
      7 C10        70.2120   90.2100   39.6450 C.2       1 276         0.5660
      8 O11        71.3040   90.7980   39.7750 O.2       1 276        -0.5997
      9 N12        69.9370   89.3780   38.6010 N.am      1 276        -0.5451
     10 C13        70.9310   89.1270   37.5570 C.3       1 276         0.0770
     11 O17        68.7650   91.6190   43.9810 O.3       1 276        -0.2293
     12 C18        67.9410   92.1250   44.9770 C.ar      1 276         0.1474
     13 C19        67.2230   93.3370   44.8210 C.ar      1 276        -0.1138
     14 C20        66.4540   93.8150   45.8690 C.ar      1 276         0.0933
     15 C21        66.3840   93.0840   47.1060 C.ar      1 276         0.0437
     16 C22        67.0790   91.9000   47.2570 C.ar      1 276        -0.0699
     17 C23        67.8620   91.4110   46.1940 C.ar      1 276        -0.1296
     18 N27        65.6710   94.9350   46.0210 N.pl3     1 276        -0.5753
     19 C28        65.1660   94.8930   47.2630 C.cat     1 276         0.5422
     20 N29        65.5680   93.8040   47.9380 N.pl3     1 276        -0.5590
     21 N32        64.2820   95.9030   47.8620 N.pl3     1 276        -0.6226
     22 C33        63.2770   96.6090   47.2720 C.ar      1 276         0.0743
     23 C34        62.8180   97.7120   47.9910 C.ar      1 276        -0.0727
     24 C35        61.7760   98.5450   47.5260 C.ar      1 276        -0.1414
     25 C36        61.1880   98.2100   46.2550 C.ar      1 276         0.0714
     26 C37        61.6440   97.0950   45.5090 C.ar      1 276        -0.1062
     27 C38        62.6890   96.2950   46.0200 C.ar      1 276        -0.1301
     28 C43        61.3450   99.7240   48.3940 C.3       1 276         0.6933
     29 CL44       59.8900   99.1210   45.5280 Cl        1 276         0.0073
     30 F45        60.1520   99.4120   48.8550 F         1 276        -0.2169
     31 F46        61.2950  100.8240   47.6670 F         1 276        -0.2169
     32 F47        62.2040   99.9190   49.4030 F         1 276        -0.2169
     33 H1         66.2060   90.7150   43.1490 H         1 276         0.1542
     34 H2         65.8340   89.7320   40.9030 H         1 276         0.0374
     35 H5         70.3690   91.2230   42.0870 H         1 276         0.1976
     36 HN12       68.9513   88.8923   38.5502 H         1 276         0.3323
     37 H131       70.5138   88.4327   36.8128 H         1 276         0.0522
     38 H132       71.8317   88.6842   38.0072 H         1 276         0.0522
     39 H133       71.1947   90.0755   37.0662 H         1 276         0.0522
     40 H19        67.2750   93.8840   43.8910 H         1 276         0.1881
     41 H22        67.0220   91.3520   48.1860 H         1 276         0.1748
     42 H23        68.4050   90.4850   46.3090 H         1 276         0.1834
     43 HN27       65.5675   95.6504   45.1919 H         1 276         0.5064
     44 HN32       64.3931   96.1714   48.9229 H         1 276         0.4912
     45 H34        63.2780   97.9390   48.9420 H         1 276         0.1783
     46 H37        61.1950   96.8590   44.5560 H         1 276         0.1796
     47 H38        63.0410   95.4430   45.4570 H         1 276         0.1512
     48 H48        65.3613   93.4405   48.9554 H         1 276         0.5113
@<TRIPOS>BOND
     1    1    6 ar
     2    1   33 1
     3    1    2 ar
     4    2   34 1
     5    2    3 ar
     6    3    4 ar
     7    4    5 ar
     8    4    7 1
     9    5    6 ar
    10    5   35 1
    11    6   11 1
    12    7    8 2
    13    7    9 am
    14    9   36 1
    15    9   10 1
    16   10   37 1
    17   10   38 1
    18   10   39 1
    19   11   12 1
    20   12   17 ar
    21   12   13 ar
    22   13   14 ar
    23   13   40 1
    24   14   18 ar
    25   14   15 ar
    26   15   16 ar
    27   15   20 ar
    28   16   41 1
    29   16   17 ar
    30   17   42 1
    31   18   19 ar
    32   18   43 1
    33   19   21 1
    34   19   20 ar
    35   20   48 1
    36   21   44 1
    37   21   22 1
    38   22   23 ar
    39   22   27 ar
    40   23   45 1
    41   23   24 ar
    42   24   28 1
    43   24   25 ar
    44   25   26 ar
    45   25   29 1
    46   26   27 ar
    47   26   46 1
    48   27   47 1
    49   28   30 1
    50   28   32 1
    51   28   31 1
@<TRIPOS>SUBSTRUCTURE
     1 276         1 GROUP   0 A     ****
@<TRIPOS>MOLECULE
4-[[2-[4-chloro-3-(trifluoromethyl)anilino]-3~{H}-benzimidazol-5-yl]oxy]-~{N}-methyl-1~{H}-pyridin-2-ylium-2-carboxamide
   48    51     1     0     0
SMALL
USER_CHARGES

@<TRIPOS>ATOM
      1 C1         67.0220   90.6190   42.4480 C.ar      1 276        -0.2224
      2 C2         66.8250   90.0640   41.1750 C.ar      1 276         0.1250
      3 N3         67.8350   89.9260   40.2650 N.pl3     1 276        -0.4859
      4 C4         69.0930   90.3430   40.6020 C.cat     1 276         0.0868
      5 C5         69.3660   90.9030   41.8450 C.ar      1 276        -0.1456
      6 C6         68.3340   91.0500   42.7830 C.ar      1 276         0.2609
      7 C10        70.2120   90.2100   39.6450 C.2       1 276         0.6382
      8 O11        71.3040   90.7980   39.7750 O.2       1 276        -0.5155
      9 N12        69.9370   89.3780   38.6010 N.am      1 276        -0.5421
     10 C13        70.9310   89.1270   37.5570 C.3       1 276         0.0601
     11 O17        68.7650   91.6190   43.9810 O.3       1 276        -0.1890
     12 C18        67.9410   92.1250   44.9770 C.ar      1 276         0.0153
     13 C19        67.2230   93.3370   44.8210 C.ar      1 276        -0.0965
     14 C20        66.4540   93.8150   45.8690 C.ar      1 276         0.0534
     15 C21        66.3840   93.0840   47.1060 C.ar      1 276         0.1248
     16 C22        67.0790   91.9000   47.2570 C.ar      1 276        -0.0687
     17 C23        67.8620   91.4110   46.1940 C.ar      1 276        -0.1575
     18 N27        65.6710   94.9350   46.0210 N.pl3     1 276        -0.7066
     19 C28        65.1660   94.8930   47.2630 C.ar      1 276         0.8013
     20 N29        65.5680   93.8040   47.9380 N.ar      1 276        -0.6092
     21 N32        64.2820   95.9030   47.8620 N.pl3     1 276        -0.6977
     22 C33        63.2770   96.6090   47.2720 C.ar      1 276         0.1574
     23 C34        62.8180   97.7120   47.9910 C.ar      1 276        -0.1347
     24 C35        61.7760   98.5450   47.5260 C.ar      1 276        -0.1308
     25 C36        61.1880   98.2100   46.2550 C.ar      1 276         0.0405
     26 C37        61.6440   97.0950   45.5090 C.ar      1 276        -0.1057
     27 C38        62.6890   96.2950   46.0200 C.ar      1 276        -0.1127
     28 C43        61.3450   99.7240   48.3940 C.3       1 276         0.6924
     29 CL44       59.8900   99.1210   45.5280 Cl        1 276        -0.0348
     30 F45        60.1520   99.4120   48.8550 F         1 276        -0.2273
     31 F46        61.2950  100.8240   47.6670 F         1 276        -0.2273
     32 F47        62.2040   99.9190   49.4030 F         1 276        -0.2273
     33 H1         66.2060   90.7150   43.1490 H         1 276         0.2065
     34 H2         65.8340   89.7320   40.9030 H         1 276         0.2161
     35 H5         70.3690   91.2230   42.0870 H         1 276         0.2217
     36 HN12       68.9513   88.8923   38.5502 H         1 276         0.3208
     37 H131       70.5138   88.4327   36.8128 H         1 276         0.0699
     38 H132       71.8317   88.6842   38.0072 H         1 276         0.0699
     39 H133       71.1947   90.0755   37.0662 H         1 276         0.0699
     40 H19        67.2750   93.8840   43.8910 H         1 276         0.1640
     41 H22        67.0220   91.3520   48.1860 H         1 276         0.1711
     42 H23        68.4050   90.4850   46.3090 H         1 276         0.1446
     43 HN27       65.5675   95.6504   45.1919 H         1 276         0.4728
     44 HN32       64.3931   96.1714   48.9229 H         1 276         0.4538
     45 H34        63.2780   97.9390   48.9420 H         1 276         0.1566
     46 H37        61.1950   96.8590   44.5560 H         1 276         0.1646
     47 H38        63.0410   95.4430   45.4570 H         1 276         0.1803
     48 H48        67.6299   89.4849   39.2784 H         1 276         0.4983
@<TRIPOS>BOND
     1    1    6 ar
     2    1   33 1
     3    1    2 ar
     4    2   34 1
     5    2    3 ar
     6    3    4 ar
     7    3   48 1
     8    4    5 ar
     9    4    7 1
    10    5    6 ar
    11    5   35 1
    12    6   11 1
    13    7    8 2
    14    7    9 am
    15    9   36 1
    16    9   10 1
    17   10   37 1
    18   10   38 1
    19   10   39 1
    20   11   12 1
    21   12   17 ar
    22   12   13 ar
    23   13   14 ar
    24   13   40 1
    25   14   18 ar
    26   14   15 ar
    27   15   16 ar
    28   15   20 ar
    29   16   41 1
    30   16   17 ar
    31   17   42 1
    32   18   19 ar
    33   18   43 1
    34   19   21 1
    35   19   20 ar
    36   21   44 1
    37   21   22 1
    38   22   23 ar
    39   22   27 ar
    40   23   45 1
    41   23   24 ar
    42   24   28 1
    43   24   25 ar
    44   25   26 ar
    45   25   29 1
    46   26   27 ar
    47   26   46 1
    48   27   47 1
    49   28   30 1
    50   28   32 1
    51   28   31 1
@<TRIPOS>SUBSTRUCTURE
     1 276         1 GROUP   0 A     ****
@<TRIPOS>MOLECULE
4-[[2-[4-chloro-3-(trifluoromethyl)anilino]-3~{H}-benzimidazol-5-yl]oxy]-~{N}-methyl-1~{H}-pyridin-2-ylium-2-carboximidate
   47    50     1     0     0
SMALL
USER_CHARGES

@<TRIPOS>ATOM
      1 C1         67.0220   90.6190   42.4480 C.ar      1 276        -0.2210
      2 C2         66.8250   90.0640   41.1750 C.ar      1 276         0.0670
      3 N3         67.8350   89.9260   40.2650 N.pl3     1 276        -0.4755
      4 C4         69.0930   90.3430   40.6020 C.cat     1 276         0.1299
      5 C5         69.3660   90.9030   41.8450 C.ar      1 276        -0.1626
      6 C6         68.3340   91.0500   42.7830 C.ar      1 276         0.1982
      7 C10        70.2120   90.2100   39.6450 C.2       1 276         0.9041
      8 O11        71.3040   90.7980   39.7750 O.3       1 276        -0.7967
      9 N12        69.9370   89.3780   38.6010 N.2       1 276        -0.8498
     10 C13        70.9310   89.1270   37.5570 C.3       1 276         0.1546
     11 O17        68.7650   91.6190   43.9810 O.3       1 276        -0.2249
     12 C18        67.9410   92.1250   44.9770 C.ar      1 276         0.0719
     13 C19        67.2230   93.3370   44.8210 C.ar      1 276        -0.1219
     14 C20        66.4540   93.8150   45.8690 C.ar      1 276         0.0623
     15 C21        66.3840   93.0840   47.1060 C.ar      1 276         0.0948
     16 C22        67.0790   91.9000   47.2570 C.ar      1 276        -0.0658
     17 C23        67.8620   91.4110   46.1940 C.ar      1 276        -0.1630
     18 N27        65.6710   94.9350   46.0210 N.pl3     1 276        -0.7083
     19 C28        65.1660   94.8930   47.2630 C.ar      1 276         0.7746
     20 N29        65.5680   93.8040   47.9380 N.ar      1 276        -0.6060
     21 N32        64.2820   95.9030   47.8620 N.pl3     1 276        -0.7069
     22 C33        63.2770   96.6090   47.2720 C.ar      1 276         0.1783
     23 C34        62.8180   97.7120   47.9910 C.ar      1 276        -0.1487
     24 C35        61.7760   98.5450   47.5260 C.ar      1 276        -0.1280
     25 C36        61.1880   98.2100   46.2550 C.ar      1 276         0.0292
     26 C37        61.6440   97.0950   45.5090 C.ar      1 276        -0.1026
     27 C38        62.6890   96.2950   46.0200 C.ar      1 276        -0.1188
     28 C43        61.3450   99.7240   48.3940 C.3       1 276         0.6918
     29 CL44       59.8900   99.1210   45.5280 Cl        1 276        -0.0514
     30 F45        60.1520   99.4120   48.8550 F         1 276        -0.2312
     31 F46        61.2950  100.8240   47.6670 F         1 276        -0.2312
     32 F47        62.2040   99.9190   49.4030 F         1 276        -0.2312
     33 H1         66.2060   90.7150   43.1490 H         1 276         0.1763
     34 H2         65.8340   89.7320   40.9030 H         1 276         0.1859
     35 H5         70.3690   91.2230   42.0870 H         1 276         0.2088
     36 H131       70.5138   88.4327   36.8128 H         1 276         0.0121
     37 H132       71.8317   88.6842   38.0072 H         1 276         0.0121
     38 H133       71.1947   90.0755   37.0662 H         1 276         0.0121
     39 H19        67.2750   93.8840   43.8910 H         1 276         0.1593
     40 H22        67.0220   91.3520   48.1860 H         1 276         0.1606
     41 H23        68.4050   90.4850   46.3090 H         1 276         0.1546
     42 HN27       65.5675   95.6504   45.1919 H         1 276         0.4651
     43 HN32       64.3931   96.1714   48.9229 H         1 276         0.4488
     44 H34        63.2780   97.9390   48.9420 H         1 276         0.1540
     45 H37        61.1950   96.8590   44.5560 H         1 276         0.1609
     46 H38        63.0410   95.4430   45.4570 H         1 276         0.1851
     47 H47        67.6299   89.4849   39.2784 H         1 276         0.4928
@<TRIPOS>BOND
     1    1    6 ar
     2    1   33 1
     3    1    2 ar
     4    2   34 1
     5    2    3 ar
     6    3    4 ar
     7    3   47 1
     8    4    5 ar
     9    4    7 1
    10    5    6 ar
    11    5   35 1
    12    6   11 1
    13    7    8 1
    14    7    9 2
    15    9   10 1
    16   10   36 1
    17   10   37 1
    18   10   38 1
    19   11   12 1
    20   12   17 ar
    21   12   13 ar
    22   13   14 ar
    23   13   39 1
    24   14   18 ar
    25   14   15 ar
    26   15   16 ar
    27   15   20 ar
    28   16   40 1
    29   16   17 ar
    30   17   41 1
    31   18   19 ar
    32   18   42 1
    33   19   21 1
    34   19   20 ar
    35   21   43 1
    36   21   22 1
    37   22   23 ar
    38   22   27 ar
    39   23   44 1
    40   23   24 ar
    41   24   28 1
    42   24   25 ar
    43   25   26 ar
    44   25   29 1
    45   26   27 ar
    46   26   45 1
    47   27   46 1
    48   28   30 1
    49   28   32 1
    50   28   31 1
@<TRIPOS>SUBSTRUCTURE
     1 276         1 GROUP   0 A     ****
@<TRIPOS>MOLECULE
4-[[2-[4-chloro-3-(trifluoromethyl)anilino]-1~{H}-benzimidazol-5-yl]oxy]-~{N}-methyl-1~{H}-pyridin-2-ylium-2-carboxamide
   48    51     1     0     0
SMALL
USER_CHARGES

@<TRIPOS>ATOM
      1 C1         67.0220   90.6190   42.4480 C.ar      1 276        -0.2241
      2 C2         66.8250   90.0640   41.1750 C.ar      1 276         0.1257
      3 N3         67.8350   89.9260   40.2650 N.pl3     1 276        -0.4875
      4 C4         69.0930   90.3430   40.6020 C.cat     1 276         0.0884
      5 C5         69.3660   90.9030   41.8450 C.ar      1 276        -0.1445
      6 C6         68.3340   91.0500   42.7830 C.ar      1 276         0.2639
      7 C10        70.2120   90.2100   39.6450 C.2       1 276         0.6420
      8 O11        71.3040   90.7980   39.7750 O.2       1 276        -0.5195
      9 N12        69.9370   89.3780   38.6010 N.am      1 276        -0.5475
     10 C13        70.9310   89.1270   37.5570 C.3       1 276         0.0666
     11 O17        68.7650   91.6190   43.9810 O.3       1 276        -0.1907
     12 C18        67.9410   92.1250   44.9770 C.ar      1 276         0.0142
     13 C19        67.2230   93.3370   44.8210 C.ar      1 276        -0.0594
     14 C20        66.4540   93.8150   45.8690 C.ar      1 276         0.1170
     15 C21        66.3840   93.0840   47.1060 C.ar      1 276         0.0591
     16 C22        67.0790   91.9000   47.2570 C.ar      1 276        -0.1012
     17 C23        67.8620   91.4110   46.1940 C.ar      1 276        -0.1573
     18 N27        65.6710   94.9350   46.0210 N.ar      1 276        -0.6040
     19 C28        65.1660   94.8930   47.2630 C.ar      1 276         0.7957
     20 N29        65.5680   93.8040   47.9380 N.pl3     1 276        -0.7022
     21 N32        64.2820   95.9030   47.8620 N.pl3     1 276        -0.6973
     22 C33        63.2770   96.6090   47.2720 C.ar      1 276         0.1583
     23 C34        62.8180   97.7120   47.9910 C.ar      1 276        -0.1350
     24 C35        61.7760   98.5450   47.5260 C.ar      1 276        -0.1288
     25 C36        61.1880   98.2100   46.2550 C.ar      1 276         0.0385
     26 C37        61.6440   97.0950   45.5090 C.ar      1 276        -0.1032
     27 C38        62.6890   96.2950   46.0200 C.ar      1 276        -0.1176
     28 C43        61.3450   99.7240   48.3940 C.3       1 276         0.6916
     29 CL44       59.8900   99.1210   45.5280 Cl        1 276        -0.0361
     30 F45        60.1520   99.4120   48.8550 F         1 276        -0.2269
     31 F46        61.2950  100.8240   47.6670 F         1 276        -0.2269
     32 F47        62.2040   99.9190   49.4030 F         1 276        -0.2269
     33 H1         66.2060   90.7150   43.1490 H         1 276         0.2071
     34 H2         65.8340   89.7320   40.9030 H         1 276         0.2165
     35 H5         70.3690   91.2230   42.0870 H         1 276         0.2210
     36 HN12       68.9513   88.8923   38.5502 H         1 276         0.3227
     37 H131       70.5138   88.4327   36.8128 H         1 276         0.0694
     38 H132       71.8317   88.6842   38.0072 H         1 276         0.0694
     39 H133       71.1947   90.0755   37.0662 H         1 276         0.0694
     40 H19        67.2750   93.8840   43.8910 H         1 276         0.1768
     41 H22        67.0220   91.3520   48.1860 H         1 276         0.1578
     42 H23        68.4050   90.4850   46.3090 H         1 276         0.1444
     43 HN32       64.3931   96.1714   48.9229 H         1 276         0.4530
     44 H34        63.2780   97.9390   48.9420 H         1 276         0.1584
     45 H37        61.1950   96.8590   44.5560 H         1 276         0.1645
     46 H38        63.0410   95.4430   45.4570 H         1 276         0.1792
     47 H47        65.3613   93.4405   48.9554 H         1 276         0.4702
     48 H48        67.6299   89.4849   39.2784 H         1 276         0.4962
@<TRIPOS>BOND
     1    1    6 ar
     2    1   33 1
     3    1    2 ar
     4    2   34 1
     5    2    3 ar
     6    3    4 ar
     7    3   48 1
     8    4    5 ar
     9    4    7 1
    10    5    6 ar
    11    5   35 1
    12    6   11 1
    13    7    8 2
    14    7    9 am
    15    9   36 1
    16    9   10 1
    17   10   37 1
    18   10   38 1
    19   10   39 1
    20   11   12 1
    21   12   17 ar
    22   12   13 ar
    23   13   14 ar
    24   13   40 1
    25   14   18 ar
    26   14   15 ar
    27   15   16 ar
    28   15   20 ar
    29   16   41 1
    30   16   17 ar
    31   17   42 1
    32   18   19 ar
    33   19   21 1
    34   19   20 ar
    35   20   47 1
    36   21   43 1
    37   21   22 1
    38   22   23 ar
    39   22   27 ar
    40   23   44 1
    41   23   24 ar
    42   24   28 1
    43   24   25 ar
    44   25   26 ar
    45   25   29 1
    46   26   27 ar
    47   26   45 1
    48   27   46 1
    49   28   30 1
    50   28   32 1
    51   28   31 1
@<TRIPOS>SUBSTRUCTURE
     1 276         1 GROUP   0 A     ****
@<TRIPOS>MOLECULE
4-[[2-[4-chloro-3-(trifluoromethyl)anilino]-1~{H}-benzimidazol-5-yl]oxy]-~{N}-methyl-1~{H}-pyridin-2-ylium-2-carboximidate
   47    50     1     0     0
SMALL
USER_CHARGES

@<TRIPOS>ATOM
      1 C1         67.0220   90.6190   42.4480 C.ar      1 276        -0.2246
      2 C2         66.8250   90.0640   41.1750 C.ar      1 276         0.0681
      3 N3         67.8350   89.9260   40.2650 N.pl3     1 276        -0.4770
      4 C4         69.0930   90.3430   40.6020 C.cat     1 276         0.1300
      5 C5         69.3660   90.9030   41.8450 C.ar      1 276        -0.1618
      6 C6         68.3340   91.0500   42.7830 C.ar      1 276         0.2003
      7 C10        70.2120   90.2100   39.6450 C.2       1 276         0.9008
      8 O11        71.3040   90.7980   39.7750 O.3       1 276        -0.8062
      9 N12        69.9370   89.3780   38.6010 N.2       1 276        -0.8406
     10 C13        70.9310   89.1270   37.5570 C.3       1 276         0.1526
     11 O17        68.7650   91.6190   43.9810 O.3       1 276        -0.2233
     12 C18        67.9410   92.1250   44.9770 C.ar      1 276         0.0545
     13 C19        67.2230   93.3370   44.8210 C.ar      1 276        -0.0746
     14 C20        66.4540   93.8150   45.8690 C.ar      1 276         0.1083
     15 C21        66.3840   93.0840   47.1060 C.ar      1 276         0.0413
     16 C22        67.0790   91.9000   47.2570 C.ar      1 276        -0.1063
     17 C23        67.8620   91.4110   46.1940 C.ar      1 276        -0.1471
     18 N27        65.6710   94.9350   46.0210 N.ar      1 276        -0.6028
     19 C28        65.1660   94.8930   47.2630 C.ar      1 276         0.7692
     20 N29        65.5680   93.8040   47.9380 N.pl3     1 276        -0.6972
     21 N32        64.2820   95.9030   47.8620 N.pl3     1 276        -0.7051
     22 C33        63.2770   96.6090   47.2720 C.ar      1 276         0.1760
     23 C34        62.8180   97.7120   47.9910 C.ar      1 276        -0.1467
     24 C35        61.7760   98.5450   47.5260 C.ar      1 276        -0.1273
     25 C36        61.1880   98.2100   46.2550 C.ar      1 276         0.0286
     26 C37        61.6440   97.0950   45.5090 C.ar      1 276        -0.1012
     27 C38        62.6890   96.2950   46.0200 C.ar      1 276        -0.1214
     28 C43        61.3450   99.7240   48.3940 C.3       1 276         0.6916
     29 CL44       59.8900   99.1210   45.5280 Cl        1 276        -0.0523
     30 F45        60.1520   99.4120   48.8550 F         1 276        -0.2308
     31 F46        61.2950  100.8240   47.6670 F         1 276        -0.2308
     32 F47        62.2040   99.9190   49.4030 F         1 276        -0.2308
     33 H1         66.2060   90.7150   43.1490 H         1 276         0.1753
     34 H2         65.8340   89.7320   40.9030 H         1 276         0.1874
     35 H5         70.3690   91.2230   42.0870 H         1 276         0.2087
     36 H131       70.5138   88.4327   36.8128 H         1 276         0.0131
     37 H132       71.8317   88.6842   38.0072 H         1 276         0.0131
     38 H133       71.1947   90.0755   37.0662 H         1 276         0.0131
     39 H19        67.2750   93.8840   43.8910 H         1 276         0.1717
     40 H22        67.0220   91.3520   48.1860 H         1 276         0.1493
     41 H23        68.4050   90.4850   46.3090 H         1 276         0.1556
     42 HN32       64.3931   96.1714   48.9229 H         1 276         0.4486
     43 H34        63.2780   97.9390   48.9420 H         1 276         0.1551
     44 H37        61.1950   96.8590   44.5560 H         1 276         0.1617
     45 H38        63.0410   95.4430   45.4570 H         1 276         0.1840
     46 H46        65.3613   93.4405   48.9554 H         1 276         0.4579
     47 H47        67.6299   89.4849   39.2784 H         1 276         0.4918
@<TRIPOS>BOND
     1    1    6 ar
     2    1   33 1
     3    1    2 ar
     4    2   34 1
     5    2    3 ar
     6    3    4 ar
     7    3   47 1
     8    4    5 ar
     9    4    7 1
    10    5    6 ar
    11    5   35 1
    12    6   11 1
    13    7    8 1
    14    7    9 2
    15    9   10 1
    16   10   36 1
    17   10   37 1
    18   10   38 1
    19   11   12 1
    20   12   17 ar
    21   12   13 ar
    22   13   14 ar
    23   13   39 1
    24   14   18 ar
    25   14   15 ar
    26   15   16 ar
    27   15   20 ar
    28   16   40 1
    29   16   17 ar
    30   17   41 1
    31   18   19 ar
    32   19   21 1
    33   19   20 ar
    34   20   46 1
    35   21   42 1
    36   21   22 1
    37   22   23 ar
    38   22   27 ar
    39   23   43 1
    40   23   24 ar
    41   24   28 1
    42   24   25 ar
    43   25   26 ar
    44   25   29 1
    45   26   27 ar
    46   26   44 1
    47   27   45 1
    48   28   30 1
    49   28   32 1
    50   28   31 1
@<TRIPOS>SUBSTRUCTURE
     1 276         1 GROUP   0 A     ****
@<TRIPOS>MOLECULE
4-[[2-[4-chloro-3-(trifluoromethyl)anilino]-1,3-dihydrobenzimidazol-2-ylium-5-yl]oxy]-~{N}-methyl-1~{H}-pyridin-2-ylium-2-carboxamide
   49    52     1     0     0
SMALL
USER_CHARGES

@<TRIPOS>ATOM
      1 C1         67.0220   90.6190   42.4480 C.ar      1 276        -0.2202
      2 C2         66.8250   90.0640   41.1750 C.ar      1 276         0.1300
      3 N3         67.8350   89.9260   40.2650 N.pl3     1 276        -0.4626
      4 C4         69.0930   90.3430   40.6020 C.cat     1 276         0.0910
      5 C5         69.3660   90.9030   41.8450 C.ar      1 276        -0.1257
      6 C6         68.3340   91.0500   42.7830 C.ar      1 276         0.2286
      7 C10        70.2120   90.2100   39.6450 C.2       1 276         0.6400
      8 O11        71.3040   90.7980   39.7750 O.2       1 276        -0.5071
      9 N12        69.9370   89.3780   38.6010 N.am      1 276        -0.5308
     10 C13        70.9310   89.1270   37.5570 C.3       1 276         0.0568
     11 O17        68.7650   91.6190   43.9810 O.3       1 276        -0.1939
     12 C18        67.9410   92.1250   44.9770 C.ar      1 276         0.0778
     13 C19        67.2230   93.3370   44.8210 C.ar      1 276        -0.0794
     14 C20        66.4540   93.8150   45.8690 C.ar      1 276         0.0876
     15 C21        66.3840   93.0840   47.1060 C.ar      1 276         0.0839
     16 C22        67.0790   91.9000   47.2570 C.ar      1 276        -0.0708
     17 C23        67.8620   91.4110   46.1940 C.ar      1 276        -0.1258
     18 N27        65.6710   94.9350   46.0210 N.pl3     1 276        -0.5733
     19 C28        65.1660   94.8930   47.2630 C.cat     1 276         0.5645
     20 N29        65.5680   93.8040   47.9380 N.pl3     1 276        -0.5854
     21 N32        64.2820   95.9030   47.8620 N.pl3     1 276        -0.5914
     22 C33        63.2770   96.6090   47.2720 C.ar      1 276         0.0472
     23 C34        62.8180   97.7120   47.9910 C.ar      1 276        -0.0608
     24 C35        61.7760   98.5450   47.5260 C.ar      1 276        -0.1425
     25 C36        61.1880   98.2100   46.2550 C.ar      1 276         0.0835
     26 C37        61.6440   97.0950   45.5090 C.ar      1 276        -0.1063
     27 C38        62.6890   96.2950   46.0200 C.ar      1 276        -0.1314
     28 C43        61.3450   99.7240   48.3940 C.3       1 276         0.6953
     29 CL44       59.8900   99.1210   45.5280 Cl        1 276         0.0268
     30 F45        60.1520   99.4120   48.8550 F         1 276        -0.2121
     31 F46        61.2950  100.8240   47.6670 F         1 276        -0.2121
     32 F47        62.2040   99.9190   49.4030 F         1 276        -0.2121
     33 H1         66.2060   90.7150   43.1490 H         1 276         0.1944
     34 H2         65.8340   89.7320   40.9030 H         1 276         0.2277
     35 H5         70.3690   91.2230   42.0870 H         1 276         0.2326
     36 HN12       68.9513   88.8923   38.5502 H         1 276         0.3234
     37 H131       70.5138   88.4327   36.8128 H         1 276         0.0773
     38 H132       71.8317   88.6842   38.0072 H         1 276         0.0773
     39 H133       71.1947   90.0755   37.0662 H         1 276         0.0773
     40 H19        67.2750   93.8840   43.8910 H         1 276         0.1963
     41 H22        67.0220   91.3520   48.1860 H         1 276         0.1883
     42 H23        68.4050   90.4850   46.3090 H         1 276         0.1756
     43 HN27       65.5675   95.6504   45.1919 H         1 276         0.5207
     44 HN32       64.3931   96.1714   48.9229 H         1 276         0.4982
     45 H34        63.2780   97.9390   48.9420 H         1 276         0.1823
     46 H37        61.1950   96.8590   44.5560 H         1 276         0.1838
     47 H38        63.0410   95.4430   45.4570 H         1 276         0.1466
     48 H48        65.3613   93.4405   48.9554 H         1 276         0.5179
     49 H49        67.6299   89.4849   39.2784 H         1 276         0.5109
@<TRIPOS>BOND
     1    1    6 ar
     2    1   33 1
     3    1    2 ar
     4    2   34 1
     5    2    3 ar
     6    3    4 ar
     7    3   49 1
     8    4    5 ar
     9    4    7 1
    10    5    6 ar
    11    5   35 1
    12    6   11 1
    13    7    8 2
    14    7    9 am
    15    9   36 1
    16    9   10 1
    17   10   37 1
    18   10   38 1
    19   10   39 1
    20   11   12 1
    21   12   17 ar
    22   12   13 ar
    23   13   14 ar
    24   13   40 1
    25   14   18 ar
    26   14   15 ar
    27   15   16 ar
    28   15   20 ar
    29   16   41 1
    30   16   17 ar
    31   17   42 1
    32   18   19 ar
    33   18   43 1
    34   19   21 1
    35   19   20 ar
    36   20   48 1
    37   21   44 1
    38   21   22 1
    39   22   23 ar
    40   22   27 ar
    41   23   45 1
    42   23   24 ar
    43   24   28 1
    44   24   25 ar
    45   25   26 ar
    46   25   29 1
    47   26   27 ar
    48   26   46 1
    49   27   47 1
    50   28   30 1
    51   28   32 1
    52   28   31 1
@<TRIPOS>SUBSTRUCTURE
     1 276         1 GROUP   0 A     ****
@<TRIPOS>MOLECULE
4-[[2-[4-chloro-3-(trifluoromethyl)anilino]-1,3-dihydrobenzimidazol-2-ylium-5-yl]oxy]-~{N}-methyl-1~{H}-pyridin-2-ylium-2-carboximidate
   48    51     1     0     0
SMALL
USER_CHARGES

@<TRIPOS>ATOM
      1 C1         67.0220   90.6190   42.4480 C.ar      1 276        -0.2296
      2 C2         66.8250   90.0640   41.1750 C.ar      1 276         0.0744
      3 N3         67.8350   89.9260   40.2650 N.pl3     1 276        -0.4670
      4 C4         69.0930   90.3430   40.6020 C.cat     1 276         0.1345
      5 C5         69.3660   90.9030   41.8450 C.ar      1 276        -0.1385
      6 C6         68.3340   91.0500   42.7830 C.ar      1 276         0.1600
      7 C10        70.2120   90.2100   39.6450 C.2       1 276         0.9119
      8 O11        71.3040   90.7980   39.7750 O.3       1 276        -0.7745
      9 N12        69.9370   89.3780   38.6010 N.2       1 276        -0.8468
     10 C13        70.9310   89.1270   37.5570 C.3       1 276         0.1517
     11 O17        68.7650   91.6190   43.9810 O.3       1 276        -0.2177
     12 C18        67.9410   92.1250   44.9770 C.ar      1 276         0.1241
     13 C19        67.2230   93.3370   44.8210 C.ar      1 276        -0.1010
     14 C20        66.4540   93.8150   45.8690 C.ar      1 276         0.0866
     15 C21        66.3840   93.0840   47.1060 C.ar      1 276         0.0571
     16 C22        67.0790   91.9000   47.2570 C.ar      1 276        -0.0737
     17 C23        67.8620   91.4110   46.1940 C.ar      1 276        -0.1201
     18 N27        65.6710   94.9350   46.0210 N.pl3     1 276        -0.5757
     19 C28        65.1660   94.8930   47.2630 C.cat     1 276         0.5470
     20 N29        65.5680   93.8040   47.9380 N.pl3     1 276        -0.5634
     21 N32        64.2820   95.9030   47.8620 N.pl3     1 276        -0.6131
     22 C33        63.2770   96.6090   47.2720 C.ar      1 276         0.0612
     23 C34        62.8180   97.7120   47.9910 C.ar      1 276        -0.0652
     24 C35        61.7760   98.5450   47.5260 C.ar      1 276        -0.1429
     25 C36        61.1880   98.2100   46.2550 C.ar      1 276         0.0759
     26 C37        61.6440   97.0950   45.5090 C.ar      1 276        -0.1072
     27 C38        62.6890   96.2950   46.0200 C.ar      1 276        -0.1293
     28 C43        61.3450   99.7240   48.3940 C.3       1 276         0.6932
     29 CL44       59.8900   99.1210   45.5280 Cl        1 276         0.0120
     30 F45        60.1520   99.4120   48.8550 F         1 276        -0.2159
     31 F46        61.2950  100.8240   47.6670 F         1 276        -0.2159
     32 F47        62.2040   99.9190   49.4030 F         1 276        -0.2159
     33 H1         66.2060   90.7150   43.1490 H         1 276         0.1641
     34 H2         65.8340   89.7320   40.9030 H         1 276         0.1940
     35 H5         70.3690   91.2230   42.0870 H         1 276         0.2164
     36 H131       70.5138   88.4327   36.8128 H         1 276         0.0205
     37 H132       71.8317   88.6842   38.0072 H         1 276         0.0205
     38 H133       71.1947   90.0755   37.0662 H         1 276         0.0205
     39 H19        67.2750   93.8840   43.8910 H         1 276         0.1908
     40 H22        67.0220   91.3520   48.1860 H         1 276         0.1791
     41 H23        68.4050   90.4850   46.3090 H         1 276         0.1875
     42 HN27       65.5675   95.6504   45.1919 H         1 276         0.5090
     43 HN32       64.3931   96.1714   48.9229 H         1 276         0.4923
     44 H34        63.2780   97.9390   48.9420 H         1 276         0.1793
     45 H37        61.1950   96.8590   44.5560 H         1 276         0.1808
     46 H38        63.0410   95.4430   45.4570 H         1 276         0.1510
     47 H47        67.6299   89.4849   39.2784 H         1 276         0.5044
     48 H48        65.3613   93.4405   48.9554 H         1 276         0.5137
@<TRIPOS>BOND
     1    1    6 ar
     2    1   33 1
     3    1    2 ar
     4    2   34 1
     5    2    3 ar
     6    3    4 ar
     7    3   47 1
     8    4    5 ar
     9    4    7 1
    10    5    6 ar
    11    5   35 1
    12    6   11 1
    13    7    8 1
    14    7    9 2
    15    9   10 1
    16   10   36 1
    17   10   37 1
    18   10   38 1
    19   11   12 1
    20   12   17 ar
    21   12   13 ar
    22   13   14 ar
    23   13   39 1
    24   14   18 ar
    25   14   15 ar
    26   15   16 ar
    27   15   20 ar
    28   16   40 1
    29   16   17 ar
    30   17   41 1
    31   18   19 ar
    32   18   42 1
    33   19   21 1
    34   19   20 ar
    35   20   48 1
    36   21   43 1
    37   21   22 1
    38   22   23 ar
    39   22   27 ar
    40   23   44 1
    41   23   24 ar
    42   24   28 1
    43   24   25 ar
    44   25   26 ar
    45   25   29 1
    46   26   27 ar
    47   26   45 1
    48   27   46 1
    49   28   30 1
    50   28   32 1
    51   28   31 1
@<TRIPOS>SUBSTRUCTURE
     1 276         1 GROUP   0 A     ****
