@<TRIPOS>MOLECULE
276
47   50    1
SMALL
USER_CHARGES


@<TRIPOS>ATOM
      1 C1         67.0220   90.6190   42.4480 C.ar      1 276         0.0000 
      2 C2         66.8250   90.0640   41.1750 C.ar      1 276         0.0000 
      3 N3         67.8350   89.9260   40.2650 N.ar      1 276         0.0000 
      4 C4         69.0930   90.3430   40.6020 C.ar      1 276         0.0000 
      5 C5         69.3660   90.9030   41.8450 C.ar      1 276         0.0000 
      6 C6         68.3340   91.0500   42.7830 C.ar      1 276         0.0000 
      7 C10        70.2120   90.2100   39.6450 C.2       1 276         0.0000 
      8 O11        71.3040   90.7980   39.7750 O.2       1 276         0.0000 
      9 N12        69.9370   89.3780   38.6010 N.am      1 276         0.0000 
     10 C13        70.9310   89.1270   37.5570 C.3       1 276         0.0000 
     11 O17        68.7650   91.6190   43.9810 O.3       1 276         0.0000 
     12 C18        67.9410   92.1250   44.9770 C.ar      1 276         0.0000 
     13 C19        67.2230   93.3370   44.8210 C.ar      1 276         0.0000 
     14 C20        66.4540   93.8150   45.8690 C.ar      1 276         0.0000 
     15 C21        66.3840   93.0840   47.1060 C.ar      1 276         0.0000 
     16 C22        67.0790   91.9000   47.2570 C.ar      1 276         0.0000 
     17 C23        67.8620   91.4110   46.1940 C.ar      1 276         0.0000 
     18 N27        65.6710   94.9350   46.0210 N.pl3     1 276         0.0000 
     19 C28        65.1660   94.8930   47.2630 C.ar      1 276         0.0000 
     20 N29        65.5680   93.8040   47.9380 N.2       1 276         0.0000 
     21 N32        64.2820   95.9030   47.8620 N.pl3     1 276         0.0000 
     22 C33        63.2770   96.6090   47.2720 C.ar      1 276         0.0000 
     23 C34        62.8180   97.7120   47.9910 C.ar      1 276         0.0000 
     24 C35        61.7760   98.5450   47.5260 C.ar      1 276         0.0000 
     25 C36        61.1880   98.2100   46.2550 C.ar      1 276         0.0000 
     26 C37        61.6440   97.0950   45.5090 C.ar      1 276         0.0000 
     27 C38        62.6890   96.2950   46.0200 C.ar      1 276         0.0000 
     28 C43        61.3450   99.7240   48.3940 C.3       1 276         0.0000 
     29 CL44       59.8900   99.1210   45.5280 Cl        1 276         0.0000 
     30 F45        60.1520   99.4120   48.8550 F         1 276         0.0000 
     31 F46        61.2950  100.8240   47.6670 F         1 276         0.0000 
     32 F47        62.2040   99.9190   49.4030 F         1 276         0.0000 
     33 H1         66.2060   90.7150   43.1490 H         1 276         0.0000 
     34 H2         65.8340   89.7320   40.9030 H         1 276         0.0000 
     35 H5         70.3690   91.2230   42.0870 H         1 276         0.0000 
     36 HN12       68.9513   88.8923   38.5502 H         1 276         0.0000 
     37 H131       70.5138   88.4327   36.8128 H         1 276         0.0000 
     38 H132       71.8317   88.6842   38.0072 H         1 276         0.0000 
     39 H133       71.1947   90.0755   37.0662 H         1 276         0.0000 
     40 H19        67.2750   93.8840   43.8910 H         1 276         0.0000 
     41 H22        67.0220   91.3520   48.1860 H         1 276         0.0000 
     42 H23        68.4050   90.4850   46.3090 H         1 276         0.0000 
     43 HN27       65.5675   95.6504   45.1919 H         1 276         0.0000 
     44 HN32       64.3931   96.1714   48.9229 H         1 276         0.0000 
     45 H34        63.2780   97.9390   48.9420 H         1 276         0.0000 
     46 H37        61.1950   96.8590   44.5560 H         1 276         0.0000 
     47 H38        63.0410   95.4430   45.4570 H         1 276         0.0000 
@<TRIPOS>BOND
     1    1    6 ar   
     2    1   33 1    
     3    1    2 ar   
     4    2   34 1    
     5    2    3 ar   
     6    3    4 ar   
     7    4    5 ar   
     8    4    7 1    
     9    5    6 ar   
    10    5   35 1    
    11    6   11 1    
    12    7    8 2    
    13    7    9 am   BACKBONE|DICT|INTERRES
    14    9   36 1    
    15    9   10 1    
    16   10   37 1    
    17   10   38 1    
    18   10   39 1    
    19   11   12 1    
    20   12   17 ar   
    21   12   13 ar   
    22   13   14 ar   
    23   13   40 1    
    24   14   18 ar   
    25   14   15 ar   
    26   15   16 ar   
    27   15   20 ar   
    28   16   41 1    
    29   16   17 ar   
    30   17   42 1    
    31   18   19 ar   
    32   18   43 1    
    33   19   21 1    
    34   19   20 ar   
    35   21   44 1    
    36   21   22 1    
    37   22   23 ar   
    38   22   27 ar   
    39   23   45 1    
    40   23   24 ar   
    41   24   28 1    
    42   24   25 ar   
    43   25   26 ar   
    44   25   29 1    
    45   26   27 ar   
    46   26   46 1    
    47   27   47 1    
    48   28   30 1    
    49   28   32 1    
    50   28   31 1    
@<TRIPOS>SUBSTRUCTURE
     1 276         1 GROUP             0       ****    0 ROOT    
@<TRIPOS>MOLECULE
276
47   50    1
SMALL
USER_CHARGES


@<TRIPOS>ATOM
      1 C1         67.0220   90.6190   42.4480 C.ar      1 276         0.0000 
      2 C2         66.8250   90.0640   41.1750 C.ar      1 276         0.0000 
      3 N3         67.8350   89.9260   40.2650 N.ar      1 276         0.0000 
      4 C4         69.0930   90.3430   40.6020 C.ar      1 276         0.0000 
      5 C5         69.3660   90.9030   41.8450 C.ar      1 276         0.0000 
      6 C6         68.3340   91.0500   42.7830 C.ar      1 276         0.0000 
      7 C10        70.2120   90.2100   39.6450 C.2       1 276         0.0000 
      8 O11        71.3040   90.7980   39.7750 O.2       1 276         0.0000 
      9 N12        69.9370   89.3780   38.6010 N.am      1 276         0.0000 
     10 C13        70.9310   89.1270   37.5570 C.3       1 276         0.0000 
     11 O17        68.7650   91.6190   43.9810 O.3       1 276         0.0000 
     12 C18        67.9410   92.1250   44.9770 C.ar      1 276         0.0000 
     13 C19        67.2230   93.3370   44.8210 C.ar      1 276         0.0000 
     14 C20        66.4540   93.8150   45.8690 C.ar      1 276         0.0000 
     15 C21        66.3840   93.0840   47.1060 C.ar      1 276         0.0000 
     16 C22        67.0790   91.9000   47.2570 C.ar      1 276         0.0000 
     17 C23        67.8620   91.4110   46.1940 C.ar      1 276         0.0000 
     18 N27        65.6710   94.9350   46.0210 N.2       1 276         0.0000 
     19 C28        65.1660   94.8930   47.2630 C.ar      1 276         0.0000 
     20 N29        65.5680   93.8040   47.9380 N.pl3     1 276         0.0000 
     21 N32        64.2820   95.9030   47.8620 N.pl3     1 276         0.0000 
     22 C33        63.2770   96.6090   47.2720 C.ar      1 276         0.0000 
     23 C34        62.8180   97.7120   47.9910 C.ar      1 276         0.0000 
     24 C35        61.7760   98.5450   47.5260 C.ar      1 276         0.0000 
     25 C36        61.1880   98.2100   46.2550 C.ar      1 276         0.0000 
     26 C37        61.6440   97.0950   45.5090 C.ar      1 276         0.0000 
     27 C38        62.6890   96.2950   46.0200 C.ar      1 276         0.0000 
     28 C43        61.3450   99.7240   48.3940 C.3       1 276         0.0000 
     29 CL44       59.8900   99.1210   45.5280 Cl        1 276         0.0000 
     30 F45        60.1520   99.4120   48.8550 F         1 276         0.0000 
     31 F46        61.2950  100.8240   47.6670 F         1 276         0.0000 
     32 F47        62.2040   99.9190   49.4030 F         1 276         0.0000 
     33 H1         66.2060   90.7150   43.1490 H         1 276         0.0000 
     34 H2         65.8340   89.7320   40.9030 H         1 276         0.0000 
     35 H5         70.3690   91.2230   42.0870 H         1 276         0.0000 
     36 HN12       68.9513   88.8923   38.5502 H         1 276         0.0000 
     37 H131       70.5138   88.4327   36.8128 H         1 276         0.0000 
     38 H132       71.8317   88.6842   38.0072 H         1 276         0.0000 
     39 H133       71.1947   90.0755   37.0662 H         1 276         0.0000 
     40 H19        67.2750   93.8840   43.8910 H         1 276         0.0000 
     41 H22        67.0220   91.3520   48.1860 H         1 276         0.0000 
     42 H23        68.4050   90.4850   46.3090 H         1 276         0.0000 
     43 HN32       64.3931   96.1714   48.9229 H         1 276         0.0000 
     44 H34        63.2780   97.9390   48.9420 H         1 276         0.0000 
     45 H37        61.1950   96.8590   44.5560 H         1 276         0.0000 
     46 H38        63.0410   95.4430   45.4570 H         1 276         0.0000 
     47 H47        65.3613   93.4405   48.9554 H         1 276         0.0000 
@<TRIPOS>BOND
     1    1    6 ar   
     2    1   33 1    
     3    1    2 ar   
     4    2   34 1    
     5    2    3 ar   
     6    3    4 ar   
     7    4    5 ar   
     8    4    7 1    
     9    5    6 ar   
    10    5   35 1    
    11    6   11 1    
    12    7    8 2    
    13    7    9 am   BACKBONE|DICT|INTERRES
    14    9   36 1    
    15    9   10 1    
    16   10   37 1    
    17   10   38 1    
    18   10   39 1    
    19   11   12 1    
    20   12   17 ar   
    21   12   13 ar   
    22   13   14 ar   
    23   13   40 1    
    24   14   18 ar   
    25   14   15 ar   
    26   15   16 ar   
    27   15   20 ar   
    28   16   41 1    
    29   16   17 ar   
    30   17   42 1    
    31   18   19 ar   
    32   19   21 1    
    33   19   20 ar   
    34   20   47 1    
    35   21   43 1    
    36   21   22 1    
    37   22   23 ar   
    38   22   27 ar   
    39   23   44 1    
    40   23   24 ar   
    41   24   28 1    
    42   24   25 ar   
    43   25   26 ar   
    44   25   29 1    
    45   26   27 ar   
    46   26   45 1    
    47   27   46 1    
    48   28   30 1    
    49   28   32 1    
    50   28   31 1    
@<TRIPOS>SUBSTRUCTURE
     1 276         1 GROUP             0       ****    0 ROOT    
@<TRIPOS>MOLECULE
276
48   51    1
SMALL
USER_CHARGES


@<TRIPOS>ATOM
      1 C1         67.0220   90.6190   42.4480 C.ar      1 276         0.0000 
      2 C2         66.8250   90.0640   41.1750 C.ar      1 276         0.0000 
      3 N3         67.8350   89.9260   40.2650 N.ar      1 276         0.0000 
      4 C4         69.0930   90.3430   40.6020 C.ar      1 276         0.0000 
      5 C5         69.3660   90.9030   41.8450 C.ar      1 276         0.0000 
      6 C6         68.3340   91.0500   42.7830 C.ar      1 276         0.0000 
      7 C10        70.2120   90.2100   39.6450 C.2       1 276         0.0000 
      8 O11        71.3040   90.7980   39.7750 O.2       1 276         0.0000 
      9 N12        69.9370   89.3780   38.6010 N.am      1 276         0.0000 
     10 C13        70.9310   89.1270   37.5570 C.3       1 276         0.0000 
     11 O17        68.7650   91.6190   43.9810 O.3       1 276         0.0000 
     12 C18        67.9410   92.1250   44.9770 C.ar      1 276         0.0000 
     13 C19        67.2230   93.3370   44.8210 C.ar      1 276         0.0000 
     14 C20        66.4540   93.8150   45.8690 C.ar      1 276         0.0000 
     15 C21        66.3840   93.0840   47.1060 C.ar      1 276         0.0000 
     16 C22        67.0790   91.9000   47.2570 C.ar      1 276         0.0000 
     17 C23        67.8620   91.4110   46.1940 C.ar      1 276         0.0000 
     18 N27        65.6710   94.9350   46.0210 N.pl3     1 276         0.0000 
     19 C28        65.1660   94.8930   47.2630 C.ar      1 276         0.0000 
     20 N29        65.5680   93.8040   47.9380 N.pl3     1 276         0.0000 
     21 N32        64.2820   95.9030   47.8620 N.pl3     1 276         0.0000 
     22 C33        63.2770   96.6090   47.2720 C.ar      1 276         0.0000 
     23 C34        62.8180   97.7120   47.9910 C.ar      1 276         0.0000 
     24 C35        61.7760   98.5450   47.5260 C.ar      1 276         0.0000 
     25 C36        61.1880   98.2100   46.2550 C.ar      1 276         0.0000 
     26 C37        61.6440   97.0950   45.5090 C.ar      1 276         0.0000 
     27 C38        62.6890   96.2950   46.0200 C.ar      1 276         0.0000 
     28 C43        61.3450   99.7240   48.3940 C.3       1 276         0.0000 
     29 CL44       59.8900   99.1210   45.5280 Cl        1 276         0.0000 
     30 F45        60.1520   99.4120   48.8550 F         1 276         0.0000 
     31 F46        61.2950  100.8240   47.6670 F         1 276         0.0000 
     32 F47        62.2040   99.9190   49.4030 F         1 276         0.0000 
     33 H1         66.2060   90.7150   43.1490 H         1 276         0.0000 
     34 H2         65.8340   89.7320   40.9030 H         1 276         0.0000 
     35 H5         70.3690   91.2230   42.0870 H         1 276         0.0000 
     36 HN12       68.9513   88.8923   38.5502 H         1 276         0.0000 
     37 H131       70.5138   88.4327   36.8128 H         1 276         0.0000 
     38 H132       71.8317   88.6842   38.0072 H         1 276         0.0000 
     39 H133       71.1947   90.0755   37.0662 H         1 276         0.0000 
     40 H19        67.2750   93.8840   43.8910 H         1 276         0.0000 
     41 H22        67.0220   91.3520   48.1860 H         1 276         0.0000 
     42 H23        68.4050   90.4850   46.3090 H         1 276         0.0000 
     43 HN27       65.5675   95.6504   45.1919 H         1 276         0.0000 
     44 HN32       64.3931   96.1714   48.9229 H         1 276         0.0000 
     45 H34        63.2780   97.9390   48.9420 H         1 276         0.0000 
     46 H37        61.1950   96.8590   44.5560 H         1 276         0.0000 
     47 H38        63.0410   95.4430   45.4570 H         1 276         0.0000 
     48 H48        65.3613   93.4405   48.9554 H         1 276         0.0000 
@<TRIPOS>BOND
     1    1    6 ar   
     2    1   33 1    
     3    1    2 ar   
     4    2   34 1    
     5    2    3 ar   
     6    3    4 ar   
     7    4    5 ar   
     8    4    7 1    
     9    5    6 ar   
    10    5   35 1    
    11    6   11 1    
    12    7    8 2    
    13    7    9 am   BACKBONE|DICT|INTERRES
    14    9   36 1    
    15    9   10 1    
    16   10   37 1    
    17   10   38 1    
    18   10   39 1    
    19   11   12 1    
    20   12   17 ar   
    21   12   13 ar   
    22   13   14 ar   
    23   13   40 1    
    24   14   18 ar   
    25   14   15 ar   
    26   15   16 ar   
    27   15   20 ar   
    28   16   41 1    
    29   16   17 ar   
    30   17   42 1    
    31   18   19 ar   
    32   18   43 1    
    33   19   21 1    
    34   19   20 ar   
    35   20   48 1    
    36   21   44 1    
    37   21   22 1    
    38   22   23 ar   
    39   22   27 ar   
    40   23   45 1    
    41   23   24 ar   
    42   24   28 1    
    43   24   25 ar   
    44   25   26 ar   
    45   25   29 1    
    46   26   27 ar   
    47   26   46 1    
    48   27   47 1    
    49   28   30 1    
    50   28   32 1    
    51   28   31 1    
@<TRIPOS>SUBSTRUCTURE
     1 276         1 GROUP             0       ****    0 ROOT    
@<TRIPOS>MOLECULE
276
48   51    1
SMALL
USER_CHARGES


@<TRIPOS>ATOM
      1 C1         67.0220   90.6190   42.4480 C.ar      1 276         0.0000 
      2 C2         66.8250   90.0640   41.1750 C.ar      1 276         0.0000 
      3 N3         67.8350   89.9260   40.2650 N.pl3     1 276         0.0000 
      4 C4         69.0930   90.3430   40.6020 C.ar      1 276         0.0000 
      5 C5         69.3660   90.9030   41.8450 C.ar      1 276         0.0000 
      6 C6         68.3340   91.0500   42.7830 C.ar      1 276         0.0000 
      7 C10        70.2120   90.2100   39.6450 C.2       1 276         0.0000 
      8 O11        71.3040   90.7980   39.7750 O.2       1 276         0.0000 
      9 N12        69.9370   89.3780   38.6010 N.am      1 276         0.0000 
     10 C13        70.9310   89.1270   37.5570 C.3       1 276         0.0000 
     11 O17        68.7650   91.6190   43.9810 O.3       1 276         0.0000 
     12 C18        67.9410   92.1250   44.9770 C.ar      1 276         0.0000 
     13 C19        67.2230   93.3370   44.8210 C.ar      1 276         0.0000 
     14 C20        66.4540   93.8150   45.8690 C.ar      1 276         0.0000 
     15 C21        66.3840   93.0840   47.1060 C.ar      1 276         0.0000 
     16 C22        67.0790   91.9000   47.2570 C.ar      1 276         0.0000 
     17 C23        67.8620   91.4110   46.1940 C.ar      1 276         0.0000 
     18 N27        65.6710   94.9350   46.0210 N.pl3     1 276         0.0000 
     19 C28        65.1660   94.8930   47.2630 C.ar      1 276         0.0000 
     20 N29        65.5680   93.8040   47.9380 N.2       1 276         0.0000 
     21 N32        64.2820   95.9030   47.8620 N.pl3     1 276         0.0000 
     22 C33        63.2770   96.6090   47.2720 C.ar      1 276         0.0000 
     23 C34        62.8180   97.7120   47.9910 C.ar      1 276         0.0000 
     24 C35        61.7760   98.5450   47.5260 C.ar      1 276         0.0000 
     25 C36        61.1880   98.2100   46.2550 C.ar      1 276         0.0000 
     26 C37        61.6440   97.0950   45.5090 C.ar      1 276         0.0000 
     27 C38        62.6890   96.2950   46.0200 C.ar      1 276         0.0000 
     28 C43        61.3450   99.7240   48.3940 C.3       1 276         0.0000 
     29 CL44       59.8900   99.1210   45.5280 Cl        1 276         0.0000 
     30 F45        60.1520   99.4120   48.8550 F         1 276         0.0000 
     31 F46        61.2950  100.8240   47.6670 F         1 276         0.0000 
     32 F47        62.2040   99.9190   49.4030 F         1 276         0.0000 
     33 H1         66.2060   90.7150   43.1490 H         1 276         0.0000 
     34 H2         65.8340   89.7320   40.9030 H         1 276         0.0000 
     35 H5         70.3690   91.2230   42.0870 H         1 276         0.0000 
     36 HN12       68.9513   88.8923   38.5502 H         1 276         0.0000 
     37 H131       70.5138   88.4327   36.8128 H         1 276         0.0000 
     38 H132       71.8317   88.6842   38.0072 H         1 276         0.0000 
     39 H133       71.1947   90.0755   37.0662 H         1 276         0.0000 
     40 H19        67.2750   93.8840   43.8910 H         1 276         0.0000 
     41 H22        67.0220   91.3520   48.1860 H         1 276         0.0000 
     42 H23        68.4050   90.4850   46.3090 H         1 276         0.0000 
     43 HN27       65.5675   95.6504   45.1919 H         1 276         0.0000 
     44 HN32       64.3931   96.1714   48.9229 H         1 276         0.0000 
     45 H34        63.2780   97.9390   48.9420 H         1 276         0.0000 
     46 H37        61.1950   96.8590   44.5560 H         1 276         0.0000 
     47 H38        63.0410   95.4430   45.4570 H         1 276         0.0000 
     48 H48        67.6299   89.4849   39.2784 H         1 276         0.0000 
@<TRIPOS>BOND
     1    1    6 ar   
     2    1   33 1    
     3    1    2 ar   
     4    2   34 1    
     5    2    3 ar   
     6    3    4 ar   
     7    3   48 1    
     8    4    5 ar   
     9    4    7 1    
    10    5    6 ar   
    11    5   35 1    
    12    6   11 1    
    13    7    8 2    
    14    7    9 am   BACKBONE|DICT|INTERRES
    15    9   36 1    
    16    9   10 1    
    17   10   37 1    
    18   10   38 1    
    19   10   39 1    
    20   11   12 1    
    21   12   17 ar   
    22   12   13 ar   
    23   13   14 ar   
    24   13   40 1    
    25   14   18 ar   
    26   14   15 ar   
    27   15   16 ar   
    28   15   20 ar   
    29   16   41 1    
    30   16   17 ar   
    31   17   42 1    
    32   18   19 ar   
    33   18   43 1    
    34   19   21 1    
    35   19   20 ar   
    36   21   44 1    
    37   21   22 1    
    38   22   23 ar   
    39   22   27 ar   
    40   23   45 1    
    41   23   24 ar   
    42   24   28 1    
    43   24   25 ar   
    44   25   26 ar   
    45   25   29 1    
    46   26   27 ar   
    47   26   46 1    
    48   27   47 1    
    49   28   30 1    
    50   28   32 1    
    51   28   31 1    
@<TRIPOS>SUBSTRUCTURE
     1 276         1 GROUP             0       ****    0 ROOT    
@<TRIPOS>MOLECULE
276
47   50    1
SMALL
USER_CHARGES


@<TRIPOS>ATOM
      1 C1         67.0220   90.6190   42.4480 C.ar      1 276         0.0000 
      2 C2         66.8250   90.0640   41.1750 C.ar      1 276         0.0000 
      3 N3         67.8350   89.9260   40.2650 N.pl3     1 276         0.0000 
      4 C4         69.0930   90.3430   40.6020 C.ar      1 276         0.0000 
      5 C5         69.3660   90.9030   41.8450 C.ar      1 276         0.0000 
      6 C6         68.3340   91.0500   42.7830 C.ar      1 276         0.0000 
      7 C10        70.2120   90.2100   39.6450 C.2       1 276         0.0000 
      8 O11        71.3040   90.7980   39.7750 O.co2     1 276         0.0000 
      9 N12        69.9370   89.3780   38.6010 N.2       1 276         0.0000 
     10 C13        70.9310   89.1270   37.5570 C.3       1 276         0.0000 
     11 O17        68.7650   91.6190   43.9810 O.3       1 276         0.0000 
     12 C18        67.9410   92.1250   44.9770 C.ar      1 276         0.0000 
     13 C19        67.2230   93.3370   44.8210 C.ar      1 276         0.0000 
     14 C20        66.4540   93.8150   45.8690 C.ar      1 276         0.0000 
     15 C21        66.3840   93.0840   47.1060 C.ar      1 276         0.0000 
     16 C22        67.0790   91.9000   47.2570 C.ar      1 276         0.0000 
     17 C23        67.8620   91.4110   46.1940 C.ar      1 276         0.0000 
     18 N27        65.6710   94.9350   46.0210 N.pl3     1 276         0.0000 
     19 C28        65.1660   94.8930   47.2630 C.ar      1 276         0.0000 
     20 N29        65.5680   93.8040   47.9380 N.2       1 276         0.0000 
     21 N32        64.2820   95.9030   47.8620 N.pl3     1 276         0.0000 
     22 C33        63.2770   96.6090   47.2720 C.ar      1 276         0.0000 
     23 C34        62.8180   97.7120   47.9910 C.ar      1 276         0.0000 
     24 C35        61.7760   98.5450   47.5260 C.ar      1 276         0.0000 
     25 C36        61.1880   98.2100   46.2550 C.ar      1 276         0.0000 
     26 C37        61.6440   97.0950   45.5090 C.ar      1 276         0.0000 
     27 C38        62.6890   96.2950   46.0200 C.ar      1 276         0.0000 
     28 C43        61.3450   99.7240   48.3940 C.3       1 276         0.0000 
     29 CL44       59.8900   99.1210   45.5280 Cl        1 276         0.0000 
     30 F45        60.1520   99.4120   48.8550 F         1 276         0.0000 
     31 F46        61.2950  100.8240   47.6670 F         1 276         0.0000 
     32 F47        62.2040   99.9190   49.4030 F         1 276         0.0000 
     33 H1         66.2060   90.7150   43.1490 H         1 276         0.0000 
     34 H2         65.8340   89.7320   40.9030 H         1 276         0.0000 
     35 H5         70.3690   91.2230   42.0870 H         1 276         0.0000 
     36 H131       70.5138   88.4327   36.8128 H         1 276         0.0000 
     37 H132       71.8317   88.6842   38.0072 H         1 276         0.0000 
     38 H133       71.1947   90.0755   37.0662 H         1 276         0.0000 
     39 H19        67.2750   93.8840   43.8910 H         1 276         0.0000 
     40 H22        67.0220   91.3520   48.1860 H         1 276         0.0000 
     41 H23        68.4050   90.4850   46.3090 H         1 276         0.0000 
     42 HN27       65.5675   95.6504   45.1919 H         1 276         0.0000 
     43 HN32       64.3931   96.1714   48.9229 H         1 276         0.0000 
     44 H34        63.2780   97.9390   48.9420 H         1 276         0.0000 
     45 H37        61.1950   96.8590   44.5560 H         1 276         0.0000 
     46 H38        63.0410   95.4430   45.4570 H         1 276         0.0000 
     47 H47        67.6299   89.4849   39.2784 H         1 276         0.0000 
@<TRIPOS>BOND
     1    1    6 ar   
     2    1   33 1    
     3    1    2 ar   
     4    2   34 1    
     5    2    3 ar   
     6    3    4 ar   
     7    3   47 1    
     8    4    5 ar   
     9    4    7 1    
    10    5    6 ar   
    11    5   35 1    
    12    6   11 1    
    13    7    8 1    
    14    7    9 2    
    15    9   10 1    
    16   10   36 1    
    17   10   37 1    
    18   10   38 1    
    19   11   12 1    
    20   12   17 ar   
    21   12   13 ar   
    22   13   14 ar   
    23   13   39 1    
    24   14   18 ar   
    25   14   15 ar   
    26   15   16 ar   
    27   15   20 ar   
    28   16   40 1    
    29   16   17 ar   
    30   17   41 1    
    31   18   19 ar   
    32   18   42 1    
    33   19   21 1    
    34   19   20 ar   
    35   21   43 1    
    36   21   22 1    
    37   22   23 ar   
    38   22   27 ar   
    39   23   44 1    
    40   23   24 ar   
    41   24   28 1    
    42   24   25 ar   
    43   25   26 ar   
    44   25   29 1    
    45   26   27 ar   
    46   26   45 1    
    47   27   46 1    
    48   28   30 1    
    49   28   32 1    
    50   28   31 1    
@<TRIPOS>SUBSTRUCTURE
     1 276         1 GROUP             0       ****    0 ROOT    
@<TRIPOS>MOLECULE
276
48   51    1
SMALL
USER_CHARGES


@<TRIPOS>ATOM
      1 C1         67.0220   90.6190   42.4480 C.ar      1 276         0.0000 
      2 C2         66.8250   90.0640   41.1750 C.ar      1 276         0.0000 
      3 N3         67.8350   89.9260   40.2650 N.pl3     1 276         0.0000 
      4 C4         69.0930   90.3430   40.6020 C.ar      1 276         0.0000 
      5 C5         69.3660   90.9030   41.8450 C.ar      1 276         0.0000 
      6 C6         68.3340   91.0500   42.7830 C.ar      1 276         0.0000 
      7 C10        70.2120   90.2100   39.6450 C.2       1 276         0.0000 
      8 O11        71.3040   90.7980   39.7750 O.2       1 276         0.0000 
      9 N12        69.9370   89.3780   38.6010 N.am      1 276         0.0000 
     10 C13        70.9310   89.1270   37.5570 C.3       1 276         0.0000 
     11 O17        68.7650   91.6190   43.9810 O.3       1 276         0.0000 
     12 C18        67.9410   92.1250   44.9770 C.ar      1 276         0.0000 
     13 C19        67.2230   93.3370   44.8210 C.ar      1 276         0.0000 
     14 C20        66.4540   93.8150   45.8690 C.ar      1 276         0.0000 
     15 C21        66.3840   93.0840   47.1060 C.ar      1 276         0.0000 
     16 C22        67.0790   91.9000   47.2570 C.ar      1 276         0.0000 
     17 C23        67.8620   91.4110   46.1940 C.ar      1 276         0.0000 
     18 N27        65.6710   94.9350   46.0210 N.2       1 276         0.0000 
     19 C28        65.1660   94.8930   47.2630 C.ar      1 276         0.0000 
     20 N29        65.5680   93.8040   47.9380 N.pl3     1 276         0.0000 
     21 N32        64.2820   95.9030   47.8620 N.pl3     1 276         0.0000 
     22 C33        63.2770   96.6090   47.2720 C.ar      1 276         0.0000 
     23 C34        62.8180   97.7120   47.9910 C.ar      1 276         0.0000 
     24 C35        61.7760   98.5450   47.5260 C.ar      1 276         0.0000 
     25 C36        61.1880   98.2100   46.2550 C.ar      1 276         0.0000 
     26 C37        61.6440   97.0950   45.5090 C.ar      1 276         0.0000 
     27 C38        62.6890   96.2950   46.0200 C.ar      1 276         0.0000 
     28 C43        61.3450   99.7240   48.3940 C.3       1 276         0.0000 
     29 CL44       59.8900   99.1210   45.5280 Cl        1 276         0.0000 
     30 F45        60.1520   99.4120   48.8550 F         1 276         0.0000 
     31 F46        61.2950  100.8240   47.6670 F         1 276         0.0000 
     32 F47        62.2040   99.9190   49.4030 F         1 276         0.0000 
     33 H1         66.2060   90.7150   43.1490 H         1 276         0.0000 
     34 H2         65.8340   89.7320   40.9030 H         1 276         0.0000 
     35 H5         70.3690   91.2230   42.0870 H         1 276         0.0000 
     36 HN12       68.9513   88.8923   38.5502 H         1 276         0.0000 
     37 H131       70.5138   88.4327   36.8128 H         1 276         0.0000 
     38 H132       71.8317   88.6842   38.0072 H         1 276         0.0000 
     39 H133       71.1947   90.0755   37.0662 H         1 276         0.0000 
     40 H19        67.2750   93.8840   43.8910 H         1 276         0.0000 
     41 H22        67.0220   91.3520   48.1860 H         1 276         0.0000 
     42 H23        68.4050   90.4850   46.3090 H         1 276         0.0000 
     43 HN32       64.3931   96.1714   48.9229 H         1 276         0.0000 
     44 H34        63.2780   97.9390   48.9420 H         1 276         0.0000 
     45 H37        61.1950   96.8590   44.5560 H         1 276         0.0000 
     46 H38        63.0410   95.4430   45.4570 H         1 276         0.0000 
     47 H47        65.3613   93.4405   48.9554 H         1 276         0.0000 
     48 H48        67.6299   89.4849   39.2784 H         1 276         0.0000 
@<TRIPOS>BOND
     1    1    6 ar   
     2    1   33 1    
     3    1    2 ar   
     4    2   34 1    
     5    2    3 ar   
     6    3    4 ar   
     7    3   48 1    
     8    4    5 ar   
     9    4    7 1    
    10    5    6 ar   
    11    5   35 1    
    12    6   11 1    
    13    7    8 2    
    14    7    9 am   BACKBONE|DICT|INTERRES
    15    9   36 1    
    16    9   10 1    
    17   10   37 1    
    18   10   38 1    
    19   10   39 1    
    20   11   12 1    
    21   12   17 ar   
    22   12   13 ar   
    23   13   14 ar   
    24   13   40 1    
    25   14   18 ar   
    26   14   15 ar   
    27   15   16 ar   
    28   15   20 ar   
    29   16   41 1    
    30   16   17 ar   
    31   17   42 1    
    32   18   19 ar   
    33   19   21 1    
    34   19   20 ar   
    35   20   47 1    
    36   21   43 1    
    37   21   22 1    
    38   22   23 ar   
    39   22   27 ar   
    40   23   44 1    
    41   23   24 ar   
    42   24   28 1    
    43   24   25 ar   
    44   25   26 ar   
    45   25   29 1    
    46   26   27 ar   
    47   26   45 1    
    48   27   46 1    
    49   28   30 1    
    50   28   32 1    
    51   28   31 1    
@<TRIPOS>SUBSTRUCTURE
     1 276         1 GROUP             0       ****    0 ROOT    
@<TRIPOS>MOLECULE
276
47   50    1
SMALL
USER_CHARGES


@<TRIPOS>ATOM
      1 C1         67.0220   90.6190   42.4480 C.ar      1 276         0.0000 
      2 C2         66.8250   90.0640   41.1750 C.ar      1 276         0.0000 
      3 N3         67.8350   89.9260   40.2650 N.pl3     1 276         0.0000 
      4 C4         69.0930   90.3430   40.6020 C.ar      1 276         0.0000 
      5 C5         69.3660   90.9030   41.8450 C.ar      1 276         0.0000 
      6 C6         68.3340   91.0500   42.7830 C.ar      1 276         0.0000 
      7 C10        70.2120   90.2100   39.6450 C.2       1 276         0.0000 
      8 O11        71.3040   90.7980   39.7750 O.co2     1 276         0.0000 
      9 N12        69.9370   89.3780   38.6010 N.2       1 276         0.0000 
     10 C13        70.9310   89.1270   37.5570 C.3       1 276         0.0000 
     11 O17        68.7650   91.6190   43.9810 O.3       1 276         0.0000 
     12 C18        67.9410   92.1250   44.9770 C.ar      1 276         0.0000 
     13 C19        67.2230   93.3370   44.8210 C.ar      1 276         0.0000 
     14 C20        66.4540   93.8150   45.8690 C.ar      1 276         0.0000 
     15 C21        66.3840   93.0840   47.1060 C.ar      1 276         0.0000 
     16 C22        67.0790   91.9000   47.2570 C.ar      1 276         0.0000 
     17 C23        67.8620   91.4110   46.1940 C.ar      1 276         0.0000 
     18 N27        65.6710   94.9350   46.0210 N.2       1 276         0.0000 
     19 C28        65.1660   94.8930   47.2630 C.ar      1 276         0.0000 
     20 N29        65.5680   93.8040   47.9380 N.pl3     1 276         0.0000 
     21 N32        64.2820   95.9030   47.8620 N.pl3     1 276         0.0000 
     22 C33        63.2770   96.6090   47.2720 C.ar      1 276         0.0000 
     23 C34        62.8180   97.7120   47.9910 C.ar      1 276         0.0000 
     24 C35        61.7760   98.5450   47.5260 C.ar      1 276         0.0000 
     25 C36        61.1880   98.2100   46.2550 C.ar      1 276         0.0000 
     26 C37        61.6440   97.0950   45.5090 C.ar      1 276         0.0000 
     27 C38        62.6890   96.2950   46.0200 C.ar      1 276         0.0000 
     28 C43        61.3450   99.7240   48.3940 C.3       1 276         0.0000 
     29 CL44       59.8900   99.1210   45.5280 Cl        1 276         0.0000 
     30 F45        60.1520   99.4120   48.8550 F         1 276         0.0000 
     31 F46        61.2950  100.8240   47.6670 F         1 276         0.0000 
     32 F47        62.2040   99.9190   49.4030 F         1 276         0.0000 
     33 H1         66.2060   90.7150   43.1490 H         1 276         0.0000 
     34 H2         65.8340   89.7320   40.9030 H         1 276         0.0000 
     35 H5         70.3690   91.2230   42.0870 H         1 276         0.0000 
     36 H131       70.5138   88.4327   36.8128 H         1 276         0.0000 
     37 H132       71.8317   88.6842   38.0072 H         1 276         0.0000 
     38 H133       71.1947   90.0755   37.0662 H         1 276         0.0000 
     39 H19        67.2750   93.8840   43.8910 H         1 276         0.0000 
     40 H22        67.0220   91.3520   48.1860 H         1 276         0.0000 
     41 H23        68.4050   90.4850   46.3090 H         1 276         0.0000 
     42 HN32       64.3931   96.1714   48.9229 H         1 276         0.0000 
     43 H34        63.2780   97.9390   48.9420 H         1 276         0.0000 
     44 H37        61.1950   96.8590   44.5560 H         1 276         0.0000 
     45 H38        63.0410   95.4430   45.4570 H         1 276         0.0000 
     46 H46        65.3613   93.4405   48.9554 H         1 276         0.0000 
     47 H47        67.6299   89.4849   39.2784 H         1 276         0.0000 
@<TRIPOS>BOND
     1    1    6 ar   
     2    1   33 1    
     3    1    2 ar   
     4    2   34 1    
     5    2    3 ar   
     6    3    4 ar   
     7    3   47 1    
     8    4    5 ar   
     9    4    7 1    
    10    5    6 ar   
    11    5   35 1    
    12    6   11 1    
    13    7    8 1    
    14    7    9 2    
    15    9   10 1    
    16   10   36 1    
    17   10   37 1    
    18   10   38 1    
    19   11   12 1    
    20   12   17 ar   
    21   12   13 ar   
    22   13   14 ar   
    23   13   39 1    
    24   14   18 ar   
    25   14   15 ar   
    26   15   16 ar   
    27   15   20 ar   
    28   16   40 1    
    29   16   17 ar   
    30   17   41 1    
    31   18   19 ar   
    32   19   21 1    
    33   19   20 ar   
    34   20   46 1    
    35   21   42 1    
    36   21   22 1    
    37   22   23 ar   
    38   22   27 ar   
    39   23   43 1    
    40   23   24 ar   
    41   24   28 1    
    42   24   25 ar   
    43   25   26 ar   
    44   25   29 1    
    45   26   27 ar   
    46   26   44 1    
    47   27   45 1    
    48   28   30 1    
    49   28   32 1    
    50   28   31 1    
@<TRIPOS>SUBSTRUCTURE
     1 276         1 GROUP             0       ****    0 ROOT    
@<TRIPOS>MOLECULE
276
49   52    1
SMALL
USER_CHARGES


@<TRIPOS>ATOM
      1 C1         67.0220   90.6190   42.4480 C.ar      1 276         0.0000 
      2 C2         66.8250   90.0640   41.1750 C.ar      1 276         0.0000 
      3 N3         67.8350   89.9260   40.2650 N.pl3     1 276         0.0000 
      4 C4         69.0930   90.3430   40.6020 C.ar      1 276         0.0000 
      5 C5         69.3660   90.9030   41.8450 C.ar      1 276         0.0000 
      6 C6         68.3340   91.0500   42.7830 C.ar      1 276         0.0000 
      7 C10        70.2120   90.2100   39.6450 C.2       1 276         0.0000 
      8 O11        71.3040   90.7980   39.7750 O.2       1 276         0.0000 
      9 N12        69.9370   89.3780   38.6010 N.am      1 276         0.0000 
     10 C13        70.9310   89.1270   37.5570 C.3       1 276         0.0000 
     11 O17        68.7650   91.6190   43.9810 O.3       1 276         0.0000 
     12 C18        67.9410   92.1250   44.9770 C.ar      1 276         0.0000 
     13 C19        67.2230   93.3370   44.8210 C.ar      1 276         0.0000 
     14 C20        66.4540   93.8150   45.8690 C.ar      1 276         0.0000 
     15 C21        66.3840   93.0840   47.1060 C.ar      1 276         0.0000 
     16 C22        67.0790   91.9000   47.2570 C.ar      1 276         0.0000 
     17 C23        67.8620   91.4110   46.1940 C.ar      1 276         0.0000 
     18 N27        65.6710   94.9350   46.0210 N.pl3     1 276         0.0000 
     19 C28        65.1660   94.8930   47.2630 C.ar      1 276         0.0000 
     20 N29        65.5680   93.8040   47.9380 N.pl3     1 276         0.0000 
     21 N32        64.2820   95.9030   47.8620 N.pl3     1 276         0.0000 
     22 C33        63.2770   96.6090   47.2720 C.ar      1 276         0.0000 
     23 C34        62.8180   97.7120   47.9910 C.ar      1 276         0.0000 
     24 C35        61.7760   98.5450   47.5260 C.ar      1 276         0.0000 
     25 C36        61.1880   98.2100   46.2550 C.ar      1 276         0.0000 
     26 C37        61.6440   97.0950   45.5090 C.ar      1 276         0.0000 
     27 C38        62.6890   96.2950   46.0200 C.ar      1 276         0.0000 
     28 C43        61.3450   99.7240   48.3940 C.3       1 276         0.0000 
     29 CL44       59.8900   99.1210   45.5280 Cl        1 276         0.0000 
     30 F45        60.1520   99.4120   48.8550 F         1 276         0.0000 
     31 F46        61.2950  100.8240   47.6670 F         1 276         0.0000 
     32 F47        62.2040   99.9190   49.4030 F         1 276         0.0000 
     33 H1         66.2060   90.7150   43.1490 H         1 276         0.0000 
     34 H2         65.8340   89.7320   40.9030 H         1 276         0.0000 
     35 H5         70.3690   91.2230   42.0870 H         1 276         0.0000 
     36 HN12       68.9513   88.8923   38.5502 H         1 276         0.0000 
     37 H131       70.5138   88.4327   36.8128 H         1 276         0.0000 
     38 H132       71.8317   88.6842   38.0072 H         1 276         0.0000 
     39 H133       71.1947   90.0755   37.0662 H         1 276         0.0000 
     40 H19        67.2750   93.8840   43.8910 H         1 276         0.0000 
     41 H22        67.0220   91.3520   48.1860 H         1 276         0.0000 
     42 H23        68.4050   90.4850   46.3090 H         1 276         0.0000 
     43 HN27       65.5675   95.6504   45.1919 H         1 276         0.0000 
     44 HN32       64.3931   96.1714   48.9229 H         1 276         0.0000 
     45 H34        63.2780   97.9390   48.9420 H         1 276         0.0000 
     46 H37        61.1950   96.8590   44.5560 H         1 276         0.0000 
     47 H38        63.0410   95.4430   45.4570 H         1 276         0.0000 
     48 H48        65.3613   93.4405   48.9554 H         1 276         0.0000 
     49 H49        67.6299   89.4849   39.2784 H         1 276         0.0000 
@<TRIPOS>BOND
     1    1    6 ar   
     2    1   33 1    
     3    1    2 ar   
     4    2   34 1    
     5    2    3 ar   
     6    3    4 ar   
     7    3   49 1    
     8    4    5 ar   
     9    4    7 1    
    10    5    6 ar   
    11    5   35 1    
    12    6   11 1    
    13    7    8 2    
    14    7    9 am   BACKBONE|DICT|INTERRES
    15    9   36 1    
    16    9   10 1    
    17   10   37 1    
    18   10   38 1    
    19   10   39 1    
    20   11   12 1    
    21   12   17 ar   
    22   12   13 ar   
    23   13   14 ar   
    24   13   40 1    
    25   14   18 ar   
    26   14   15 ar   
    27   15   16 ar   
    28   15   20 ar   
    29   16   41 1    
    30   16   17 ar   
    31   17   42 1    
    32   18   19 ar   
    33   18   43 1    
    34   19   21 1    
    35   19   20 ar   
    36   20   48 1    
    37   21   44 1    
    38   21   22 1    
    39   22   23 ar   
    40   22   27 ar   
    41   23   45 1    
    42   23   24 ar   
    43   24   28 1    
    44   24   25 ar   
    45   25   26 ar   
    46   25   29 1    
    47   26   27 ar   
    48   26   46 1    
    49   27   47 1    
    50   28   30 1    
    51   28   32 1    
    52   28   31 1    
@<TRIPOS>SUBSTRUCTURE
     1 276         1 GROUP             0       ****    0 ROOT    
@<TRIPOS>MOLECULE
276
48   51    1
SMALL
USER_CHARGES


@<TRIPOS>ATOM
      1 C1         67.0220   90.6190   42.4480 C.ar      1 276         0.0000 
      2 C2         66.8250   90.0640   41.1750 C.ar      1 276         0.0000 
      3 N3         67.8350   89.9260   40.2650 N.pl3     1 276         0.0000 
      4 C4         69.0930   90.3430   40.6020 C.ar      1 276         0.0000 
      5 C5         69.3660   90.9030   41.8450 C.ar      1 276         0.0000 
      6 C6         68.3340   91.0500   42.7830 C.ar      1 276         0.0000 
      7 C10        70.2120   90.2100   39.6450 C.2       1 276         0.0000 
      8 O11        71.3040   90.7980   39.7750 O.co2     1 276         0.0000 
      9 N12        69.9370   89.3780   38.6010 N.2       1 276         0.0000 
     10 C13        70.9310   89.1270   37.5570 C.3       1 276         0.0000 
     11 O17        68.7650   91.6190   43.9810 O.3       1 276         0.0000 
     12 C18        67.9410   92.1250   44.9770 C.ar      1 276         0.0000 
     13 C19        67.2230   93.3370   44.8210 C.ar      1 276         0.0000 
     14 C20        66.4540   93.8150   45.8690 C.ar      1 276         0.0000 
     15 C21        66.3840   93.0840   47.1060 C.ar      1 276         0.0000 
     16 C22        67.0790   91.9000   47.2570 C.ar      1 276         0.0000 
     17 C23        67.8620   91.4110   46.1940 C.ar      1 276         0.0000 
     18 N27        65.6710   94.9350   46.0210 N.pl3     1 276         0.0000 
     19 C28        65.1660   94.8930   47.2630 C.ar      1 276         0.0000 
     20 N29        65.5680   93.8040   47.9380 N.pl3     1 276         0.0000 
     21 N32        64.2820   95.9030   47.8620 N.pl3     1 276         0.0000 
     22 C33        63.2770   96.6090   47.2720 C.ar      1 276         0.0000 
     23 C34        62.8180   97.7120   47.9910 C.ar      1 276         0.0000 
     24 C35        61.7760   98.5450   47.5260 C.ar      1 276         0.0000 
     25 C36        61.1880   98.2100   46.2550 C.ar      1 276         0.0000 
     26 C37        61.6440   97.0950   45.5090 C.ar      1 276         0.0000 
     27 C38        62.6890   96.2950   46.0200 C.ar      1 276         0.0000 
     28 C43        61.3450   99.7240   48.3940 C.3       1 276         0.0000 
     29 CL44       59.8900   99.1210   45.5280 Cl        1 276         0.0000 
     30 F45        60.1520   99.4120   48.8550 F         1 276         0.0000 
     31 F46        61.2950  100.8240   47.6670 F         1 276         0.0000 
     32 F47        62.2040   99.9190   49.4030 F         1 276         0.0000 
     33 H1         66.2060   90.7150   43.1490 H         1 276         0.0000 
     34 H2         65.8340   89.7320   40.9030 H         1 276         0.0000 
     35 H5         70.3690   91.2230   42.0870 H         1 276         0.0000 
     36 H131       70.5138   88.4327   36.8128 H         1 276         0.0000 
     37 H132       71.8317   88.6842   38.0072 H         1 276         0.0000 
     38 H133       71.1947   90.0755   37.0662 H         1 276         0.0000 
     39 H19        67.2750   93.8840   43.8910 H         1 276         0.0000 
     40 H22        67.0220   91.3520   48.1860 H         1 276         0.0000 
     41 H23        68.4050   90.4850   46.3090 H         1 276         0.0000 
     42 HN27       65.5675   95.6504   45.1919 H         1 276         0.0000 
     43 HN32       64.3931   96.1714   48.9229 H         1 276         0.0000 
     44 H34        63.2780   97.9390   48.9420 H         1 276         0.0000 
     45 H37        61.1950   96.8590   44.5560 H         1 276         0.0000 
     46 H38        63.0410   95.4430   45.4570 H         1 276         0.0000 
     47 H47        67.6299   89.4849   39.2784 H         1 276         0.0000 
     48 H48        65.3613   93.4405   48.9554 H         1 276         0.0000 
@<TRIPOS>BOND
     1    1    6 ar   
     2    1   33 1    
     3    1    2 ar   
     4    2   34 1    
     5    2    3 ar   
     6    3    4 ar   
     7    3   47 1    
     8    4    5 ar   
     9    4    7 1    
    10    5    6 ar   
    11    5   35 1    
    12    6   11 1    
    13    7    8 1    
    14    7    9 2    
    15    9   10 1    
    16   10   36 1    
    17   10   37 1    
    18   10   38 1    
    19   11   12 1    
    20   12   17 ar   
    21   12   13 ar   
    22   13   14 ar   
    23   13   39 1    
    24   14   18 ar   
    25   14   15 ar   
    26   15   16 ar   
    27   15   20 ar   
    28   16   40 1    
    29   16   17 ar   
    30   17   41 1    
    31   18   19 ar   
    32   18   42 1    
    33   19   21 1    
    34   19   20 ar   
    35   20   48 1    
    36   21   43 1    
    37   21   22 1    
    38   22   23 ar   
    39   22   27 ar   
    40   23   44 1    
    41   23   24 ar   
    42   24   28 1    
    43   24   25 ar   
    44   25   26 ar   
    45   25   29 1    
    46   26   27 ar   
    47   26   45 1    
    48   27   46 1    
    49   28   30 1    
    50   28   32 1    
    51   28   31 1    
@<TRIPOS>SUBSTRUCTURE
     1 276         1 GROUP             0       ****    0 ROOT    
