@<TRIPOS>MOLECULE
[3-[5-(2-aminopyrimidin-4-yl)-2-~{tert}-butyl-thiazol-4-yl]-2-fluoro-phenyl]-(2,6-difluorophenyl)sulfonyl-azanide
   54    57     1     0     0
SMALL
USER_CHARGES

@<TRIPOS>ATOM
      1 C1          0.3570   -5.1400    5.5770 C.ar      1 P06         0.8343
      2 C2         -1.1670   -3.6100    6.4300 C.ar      1 P06         0.5708
      3 N3         -0.0860   -4.4040    6.6270 N.ar      1 P06        -0.7434
      4 C4         -1.8120   -3.5300    5.2090 C.ar      1 P06        -0.3634
      5 N6         -0.2210   -5.1200    4.3570 N.ar      1 P06        -0.7517
      6 C7         -1.2920   -4.3160    4.2060 C.ar      1 P06         0.4531
      7 N9          1.4600   -5.9590    5.7600 N.pl3     1 P06        -0.9088
      8 C12        -1.5770   -2.8400    7.6080 C.ar      1 P06        -0.2724
      9 S13        -0.5020   -2.7910    8.9580 S.3       1 P06        -0.1213
     10 C14        -1.5910   -1.7820    9.8320 C.ar      1 P06         0.4113
     11 N15        -2.6910   -1.4890    9.1730 N.ar      1 P06        -0.5997
     12 C16        -2.6970   -2.0770    7.9220 C.ar      1 P06         0.4660
     13 C17        -1.2900   -1.2790   11.2430 C.3       1 P06        -0.0826
     14 C18        -0.0120   -1.9150   11.8170 C.3       1 P06        -0.0865
     15 C22        -2.4570   -1.6500   12.1830 C.3       1 P06        -0.0865
     16 C26        -1.1420    0.2530   11.2430 C.3       1 P06        -0.0865
     17 C30        -3.8650   -1.8280    7.0970 C.ar      1 P06        -0.1522
     18 C31        -5.2730   -0.1910    5.9690 C.ar      1 P06         0.3926
     19 C32        -4.1610   -0.5120    6.7420 C.ar      1 P06         0.0559
     20 C33        -6.1210   -1.2120    5.5330 C.ar      1 P06        -0.2479
     21 C35        -4.7240   -2.8460    6.6640 C.ar      1 P06        -0.1974
     22 C37        -5.8430   -2.5360    5.8840 C.ar      1 P06        -0.0988
     23 F39        -3.3570    0.4840    7.1460 F         1 P06        -0.1408
     24 N40        -5.4560    1.2030    5.6650 N.2       1 P06        -0.9310
     25 S42        -6.9750    1.8620    5.2160 S.o2      1 P06         1.6169
     26 C43        -7.0410    1.5170    3.4750 C.ar      1 P06        -0.3127
     27 C44        -7.9930    0.3640    1.5710 C.ar      1 P06        -0.2291
     28 C46        -7.9570    0.6130    2.9420 C.ar      1 P06         0.2323
     29 C47        -7.1020    1.0170    0.7170 C.ar      1 P06        -0.0730
     30 C49        -6.1550    2.1690    2.6160 C.ar      1 P06         0.2323
     31 C50        -6.1820    1.9230    1.2440 C.ar      1 P06        -0.2291
     32 F52        -5.2600    3.0450    3.0940 F         1 P06        -0.1215
     33 F53        -8.8270   -0.0330    3.7270 F         1 P06        -0.1215
     34 O54        -8.0540    1.1580    5.8840 O.2       1 P06        -0.7137
     35 O55        -6.9020    3.3070    5.3240 O.2       1 P06        -0.7137
     36 H1         -2.6690   -2.8920    5.0530 H         1 P06         0.1762
     37 H2         -1.7720   -4.2870    3.2390 H         1 P06         0.0246
     38 H3          1.8390   -6.5659    4.9246 H         1 P06         0.4050
     39 H4          1.9564   -6.0021    6.7407 H         1 P06         0.4050
     40 H5          0.1673   -1.5269   12.8305 H         1 P06         0.0409
     41 H6          0.8434   -1.6653   11.1720 H         1 P06         0.0409
     42 H7         -0.1331   -3.0075   11.8588 H         1 P06         0.0409
     43 H8         -2.2393   -1.2875   13.1985 H         1 P06         0.0409
     44 H9         -2.5791   -2.7430   12.2022 H         1 P06         0.0409
     45 H10        -3.3841   -1.1838   11.8181 H         1 P06         0.0409
     46 H11        -0.9258    0.6005   12.2640 H         1 P06         0.0409
     47 H12        -2.0774    0.7117   10.8899 H         1 P06         0.0409
     48 H13        -0.3171    0.5417   10.5750 H         1 P06         0.0409
     49 H14        -6.9860   -0.9800    4.9290 H         1 P06         0.1265
     50 H15        -4.5220   -3.8720    6.9330 H         1 P06         0.1207
     51 H16        -6.4980   -3.3270    5.5500 H         1 P06         0.1087
     52 H18        -8.7110   -0.3350    1.1690 H         1 P06         0.1336
     53 H19        -7.1250    0.8220   -0.3450 H         1 P06         0.1182
     54 H20        -5.4910    2.4340    0.5900 H         1 P06         0.1336
@<TRIPOS>BOND
     1    1    7 1
     2    1    3 ar
     3    1    5 ar
     4    2    3 ar
     5    2    8 1
     6    2    4 ar
     7    4   36 1
     8    4    6 ar
     9    5    6 ar
    10    6   37 1
    11    7   38 1
    12    7   39 1
    13    8   12 ar
    14    8    9 ar
    15    9   10 ar
    16   10   13 1
    17   10   11 ar
    18   11   12 ar
    19   12   17 1
    20   13   16 1
    21   13   14 1
    22   13   15 1
    23   14   40 1
    24   14   41 1
    25   14   42 1
    26   15   43 1
    27   15   44 1
    28   15   45 1
    29   16   46 1
    30   16   47 1
    31   16   48 1
    32   17   19 ar
    33   17   21 ar
    34   18   19 ar
    35   18   20 ar
    36   18   24 1
    37   19   23 1
    38   20   22 ar
    39   20   49 1
    40   21   50 1
    41   21   22 ar
    42   22   51 1
    43   24   25 1
    44   25   35 2
    45   25   34 2
    46   25   26 1
    47   26   28 ar
    48   26   30 ar
    49   27   28 ar
    50   27   52 1
    51   27   29 ar
    52   28   33 1
    53   29   31 ar
    54   29   53 1
    55   30   32 1
    56   30   31 ar
    57   31   54 1
@<TRIPOS>SUBSTRUCTURE
     1 P06         1 GROUP   0 A     ****
@<TRIPOS>MOLECULE
~{N}-[3-[5-(2-aminopyrimidin-4-yl)-2-~{tert}-butyl-thiazol-4-yl]-2-fluoro-phenyl]-2,6-difluoro-benzenesulfonamide
   55    58     1     0     0
SMALL
USER_CHARGES

@<TRIPOS>ATOM
      1 C1          0.3570   -5.1400    5.5770 C.ar      1 P06         0.8637
      2 C2         -1.1670   -3.6100    6.4300 C.ar      1 P06         0.5562
      3 N3         -0.0860   -4.4040    6.6270 N.ar      1 P06        -0.7533
      4 C4         -1.8120   -3.5300    5.2090 C.ar      1 P06        -0.3922
      5 N6         -0.2210   -5.1200    4.3570 N.ar      1 P06        -0.7440
      6 C7         -1.2920   -4.3160    4.2060 C.ar      1 P06         0.4640
      7 N9          1.4600   -5.9590    5.7600 N.pl3     1 P06        -0.9256
      8 C12        -1.5770   -2.8400    7.6080 C.ar      1 P06        -0.2697
      9 S13        -0.5020   -2.7910    8.9580 S.3       1 P06        -0.0205
     10 C14        -1.5910   -1.7820    9.8320 C.ar      1 P06         0.4006
     11 N15        -2.6910   -1.4890    9.1730 N.ar      1 P06        -0.6074
     12 C16        -2.6970   -2.0770    7.9220 C.ar      1 P06         0.4061
     13 C17        -1.2900   -1.2790   11.2430 C.3       1 P06        -0.0866
     14 C18        -0.0120   -1.9150   11.8170 C.3       1 P06        -0.0875
     15 C22        -2.4570   -1.6500   12.1830 C.3       1 P06        -0.0875
     16 C26        -1.1420    0.2530   11.2430 C.3       1 P06        -0.0875
     17 C30        -3.8650   -1.8280    7.0970 C.ar      1 P06        -0.1366
     18 C31        -5.2730   -0.1910    5.9690 C.ar      1 P06         0.1023
     19 C32        -4.1610   -0.5120    6.7420 C.ar      1 P06         0.1490
     20 C33        -6.1210   -1.2120    5.5330 C.ar      1 P06        -0.1163
     21 C35        -4.7240   -2.8460    6.6640 C.ar      1 P06        -0.0847
     22 C37        -5.8430   -2.5360    5.8840 C.ar      1 P06        -0.1320
     23 F39        -3.3570    0.4840    7.1460 F         1 P06        -0.1221
     24 N40        -5.4560    1.2030    5.6650 N.pl3     1 P06        -0.7851
     25 S42        -6.9750    1.8620    5.2160 S.o2      1 P06         1.5189
     26 C43        -7.0410    1.5170    3.4750 C.ar      1 P06        -0.4365
     27 C44        -7.9930    0.3640    1.5710 C.ar      1 P06        -0.2144
     28 C46        -7.9570    0.6130    2.9420 C.ar      1 P06         0.2609
     29 C47        -7.1020    1.0170    0.7170 C.ar      1 P06        -0.0226
     30 C49        -6.1550    2.1690    2.6160 C.ar      1 P06         0.2609
     31 C50        -6.1820    1.9230    1.2440 C.ar      1 P06        -0.2144
     32 F52        -5.2600    3.0450    3.0940 F         1 P06        -0.1061
     33 F53        -8.8270   -0.0330    3.7270 F         1 P06        -0.1061
     34 O54        -8.0540    1.1580    5.8840 O.2       1 P06        -0.6306
     35 O55        -6.9020    3.3070    5.3240 O.2       1 P06        -0.6306
     36 H1         -2.6690   -2.8920    5.0530 H         1 P06         0.1632
     37 H2         -1.7720   -4.2870    3.2390 H         1 P06         0.0292
     38 H3          1.8390   -6.5659    4.9246 H         1 P06         0.4276
     39 H4          1.9564   -6.0021    6.7407 H         1 P06         0.4276
     40 H5          0.1673   -1.5269   12.8305 H         1 P06         0.0441
     41 H6          0.8434   -1.6653   11.1720 H         1 P06         0.0441
     42 H7         -0.1331   -3.0075   11.8588 H         1 P06         0.0441
     43 H8         -2.2393   -1.2875   13.1985 H         1 P06         0.0441
     44 H9         -2.5791   -2.7430   12.2022 H         1 P06         0.0441
     45 H10        -3.3841   -1.1838   11.8181 H         1 P06         0.0441
     46 H11        -0.9258    0.6005   12.2640 H         1 P06         0.0441
     47 H12        -2.0774    0.7117   10.8899 H         1 P06         0.0441
     48 H13        -0.3171    0.5417   10.5750 H         1 P06         0.0441
     49 H14        -6.9860   -0.9800    4.9290 H         1 P06         0.1410
     50 H15        -4.5220   -3.8720    6.9330 H         1 P06         0.1529
     51 H16        -6.4980   -3.3270    5.5500 H         1 P06         0.1418
     52 H17        -4.5716    1.8539    5.7298 H         1 P06         0.4665
     53 H18        -8.7110   -0.3350    1.1690 H         1 P06         0.1606
     54 H19        -7.1250    0.8220   -0.3450 H         1 P06         0.1490
     55 H20        -5.4910    2.4340    0.5900 H         1 P06         0.1606
@<TRIPOS>BOND
     1    1    7 1
     2    1    3 ar
     3    1    5 ar
     4    2    3 ar
     5    2    8 1
     6    2    4 ar
     7    4   36 1
     8    4    6 ar
     9    5    6 ar
    10    6   37 1
    11    7   38 1
    12    7   39 1
    13    8   12 ar
    14    8    9 ar
    15    9   10 ar
    16   10   13 1
    17   10   11 ar
    18   11   12 ar
    19   12   17 1
    20   13   16 1
    21   13   14 1
    22   13   15 1
    23   14   40 1
    24   14   41 1
    25   14   42 1
    26   15   43 1
    27   15   44 1
    28   15   45 1
    29   16   46 1
    30   16   47 1
    31   16   48 1
    32   17   19 ar
    33   17   21 ar
    34   18   19 ar
    35   18   20 ar
    36   18   24 1
    37   19   23 1
    38   20   22 ar
    39   20   49 1
    40   21   50 1
    41   21   22 ar
    42   22   51 1
    43   24   52 1
    44   24   25 1
    45   25   35 2
    46   25   34 2
    47   25   26 1
    48   26   28 ar
    49   26   30 ar
    50   27   28 ar
    51   27   53 1
    52   27   29 ar
    53   28   33 1
    54   29   31 ar
    55   29   54 1
    56   30   32 1
    57   30   31 ar
    58   31   55 1
@<TRIPOS>SUBSTRUCTURE
     1 P06         1 GROUP   0 A     ****
