@<TRIPOS>MOLECULE
3-(2-imidazo[1,2-b]pyridazin-3-ylethynyl)-4-methyl-~{N}-[4-[(4-methylpiperazin-1-ium-1-yl)methyl]-3-(trifluoromethyl)phenyl]benzamide
   67    71     1     0     0
SMALL
USER_CHARGES

@<TRIPOS>ATOM
      1 N1          4.0940   -7.3400   13.8920 N.ar      1 0LI        -0.6429
      2 N3          7.3430    7.8250   19.1290 N.4       1 0LI        -0.6851
      3 C4          3.1100   -2.6620   13.9140 C.1       1 0LI        -0.1189
      4 C5          3.1240   -1.2170   13.7480 C.ar      1 0LI         0.0315
      5 C6          2.5150   -0.5470   12.6130 C.ar      1 0LI        -0.0057
      6 C7          2.5760    0.8700   12.5170 C.ar      1 0LI        -0.1422
      7 C8          3.2490    1.6490   13.5520 C.ar      1 0LI        -0.0963
      8 C10         3.7770   -0.4670   14.7510 C.ar      1 0LI        -0.0386
      9 C13         5.5040    3.8890   16.4060 C.ar      1 0LI         0.1293
     10 C15         6.1490    6.1890   17.0020 C.ar      1 0LI        -0.1186
     11 C17         7.4820    4.2910   17.8860 C.ar      1 0LI        -0.0951
     12 C20         8.1140    6.7760   18.4920 C.3       1 0LI         0.1566
     13 C21         6.4850    7.3580   20.2450 C.3       1 0LI         0.1100
     14 C22         5.5980    8.5190   20.7600 C.3       1 0LI         0.1469
     15 C24         8.2360    8.9130   19.6140 C.3       1 0LI         0.1100
     16 C81         2.3350   -8.4230   15.3470 C.ar      1 0LI        -0.1547
     17 C82         1.2170   -8.1070   16.1180 C.ar      1 0LI        -0.2550
     18 C83         0.7960   -6.7380   16.2130 C.ar      1 0LI         0.4011
     19 N81         1.3920   -5.6970   15.6110 N.ar      1 0LI        -0.4909
     20 N82         2.4830   -6.0660   14.8670 N.pl3     1 0LI         0.0775
     21 C84         3.0240   -7.3780   14.6770 C.ar      1 0LI         0.4242
     22 C1          4.2660   -6.0040   13.5630 C.ar      1 0LI         0.3748
     23 C2          3.2980   -5.2450   14.1440 C.ar      1 0LI        -0.1164
     24 C3          3.1690   -3.8560   14.0260 C.1       1 0LI        -0.0282
     25 C9          3.8540    0.9630   14.6800 C.ar      1 0LI        -0.1728
     26 C11         1.8080   -1.3360   11.5010 C.3       1 0LI        -0.0718
     27 C12         4.5610    1.6710   15.7780 C.2       1 0LI         0.6998
     28 O1          5.0700    1.0130   16.6930 O.2       1 0LI        -0.5692
     29 N2          4.5990    3.0330   15.7040 N.am      1 0LI        -0.4851
     30 C14         5.2890    5.2810   16.3210 C.ar      1 0LI        -0.1153
     31 C16         7.2430    5.7250   17.7850 C.ar      1 0LI        -0.1545
     32 C18         6.6020    3.4000   17.1890 C.ar      1 0LI        -0.1493
     33 C19         8.6220    3.7010   18.7020 C.3       1 0LI         0.6835
     34 F1          8.4210    3.9530   19.9860 F         1 0LI        -0.2264
     35 F2          8.7050    2.3810   18.5780 F         1 0LI        -0.2264
     36 F3          9.7940    4.2350   18.2910 F         1 0LI        -0.2264
     37 C23         7.3820   10.1000   20.1030 C.3       1 0LI         0.1469
     38 C25         5.5690   10.8090   21.5780 C.3       1 0LI         0.1511
     39 N4          6.4220    9.6880   21.1710 N.3       1 0LI        -0.7383
     40 H7          2.1230    1.3720   11.6750 H         1 0LI         0.1486
     41 H8          3.2970    2.7260   13.4800 H         1 0LI         0.1287
     42 H10         4.2270   -0.9810   15.5880 H         1 0LI         0.1659
     43 H15         5.9670    7.2510   16.9230 H         1 0LI         0.1296
     44 H20         8.7794    7.2178   17.7357 H         1 0LI         0.1162
     45 H20A        8.7161    6.2522   19.2490 H         1 0LI         0.1162
     46 H21         5.8390    6.5401   19.8933 H         1 0LI         0.1073
     47 H21A        7.1187    6.9966   21.0683 H         1 0LI         0.1073
     48 H22         4.9118    8.8381   19.9617 H         1 0LI         0.0749
     49 H22A        5.0162    8.1783   21.6291 H         1 0LI         0.0749
     50 H24         8.8526    8.5385   20.4444 H         1 0LI         0.1073
     51 H24A        8.8889    9.2448   18.7932 H         1 0LI         0.1073
     52 H81         2.6710   -9.4460   15.2610 H         1 0LI         0.1758
     53 H82         0.6740   -8.8830   16.6370 H         1 0LI         0.1625
     54 H83        -0.0730   -6.5280   16.8190 H         1 0LI         0.0558
     55 H1          5.0560   -5.6200   12.9350 H         1 0LI         0.0561
     56 H11         1.4214   -0.6372   10.7446 H         1 0LI         0.0626
     57 H11A        0.9734   -1.9088   11.9316 H         1 0LI         0.0626
     58 H11B        2.5228   -2.0271   11.0304 H         1 0LI         0.0626
     59 HN2         3.8448    3.4647   15.0296 H         1 0LI         0.3346
     60 H14         4.4650    5.6610   15.7350 H         1 0LI         0.1908
     61 H18         6.7700    2.3350   17.2550 H         1 0LI         0.1684
     62 H23         8.0398   10.8811   20.5118 H         1 0LI         0.0749
     63 H23A        6.8065   10.5096   19.2598 H         1 0LI         0.0749
     64 H25         6.1992   11.6596   21.8768 H         1 0LI         0.0570
     65 H25A        4.9406   10.5021   22.4271 H         1 0LI         0.0570
     66 H25B        4.9273   11.1062   20.7354 H         1 0LI         0.0570
     67 H67         6.6751    8.1797   18.3302 H         1 0LI         0.4441
@<TRIPOS>BOND
     1    1   21 ar
     2    1   22 ar
     3    2   12 1
     4    2   13 1
     5    2   15 1
     6    2   67 1
     7    3    4 1
     8    3   24 3
     9    4    5 ar
    10    4    8 ar
    11    5    6 ar
    12    5   26 1
    13    6    7 ar
    14    6   40 1
    15    7   25 ar
    16    7   41 1
    17    8   25 ar
    18    8   42 1
    19    9   29 1
    20    9   30 ar
    21    9   32 ar
    22   10   30 ar
    23   10   31 ar
    24   10   43 1
    25   11   31 ar
    26   11   32 ar
    27   11   33 1
    28   12   31 1
    29   12   44 1
    30   12   45 1
    31   13   14 1
    32   13   46 1
    33   13   47 1
    34   14   39 1
    35   14   48 1
    36   14   49 1
    37   15   37 1
    38   15   50 1
    39   15   51 1
    40   16   17 ar
    41   16   21 ar
    42   16   52 1
    43   17   18 ar
    44   17   53 1
    45   18   19 ar
    46   18   54 1
    47   19   20 ar
    48   20   21 ar
    49   20   23 ar
    50   22   23 ar
    51   22   55 1
    52   23   24 1
    53   25   27 1
    54   26   56 1
    55   26   57 1
    56   26   58 1
    57   27   28 2
    58   27   29 am
    59   29   59 1
    60   30   60 1
    61   32   61 1
    62   33   34 1
    63   33   35 1
    64   33   36 1
    65   37   39 1
    66   37   62 1
    67   37   63 1
    68   38   39 1
    69   38   64 1
    70   38   65 1
    71   38   66 1
@<TRIPOS>SUBSTRUCTURE
     1 0LI         1 GROUP   0 A     ****
@<TRIPOS>MOLECULE
3-(2-imidazo[1,2-b]pyridazin-3-ylethynyl)-4-methyl-~{N}-[4-[(4-methylpiperazin-4-ium-1-yl)methyl]-3-(trifluoromethyl)phenyl]benzamide
   67    71     1     0     0
SMALL
USER_CHARGES

@<TRIPOS>ATOM
      1 N1          4.0940   -7.3400   13.8920 N.ar      1 0LI        -0.6422
      2 N3          7.3430    7.8250   19.1290 N.3       1 0LI        -0.7570
      3 C4          3.1100   -2.6620   13.9140 C.1       1 0LI        -0.1057
      4 C5          3.1240   -1.2170   13.7480 C.ar      1 0LI         0.0249
      5 C6          2.5150   -0.5470   12.6130 C.ar      1 0LI        -0.0120
      6 C7          2.5760    0.8700   12.5170 C.ar      1 0LI        -0.1429
      7 C8          3.2490    1.6490   13.5520 C.ar      1 0LI        -0.0935
      8 C10         3.7770   -0.4670   14.7510 C.ar      1 0LI        -0.0421
      9 C13         5.5040    3.8890   16.4060 C.ar      1 0LI         0.1006
     10 C15         6.1490    6.1890   17.0020 C.ar      1 0LI        -0.1098
     11 C17         7.4820    4.2910   17.8860 C.ar      1 0LI        -0.1235
     12 C20         8.1140    6.7760   18.4920 C.3       1 0LI         0.2262
     13 C21         6.4850    7.3580   20.2450 C.3       1 0LI         0.1501
     14 C22         5.5980    8.5190   20.7600 C.3       1 0LI         0.1058
     15 C24         8.2360    8.9130   19.6140 C.3       1 0LI         0.1501
     16 C81         2.3350   -8.4230   15.3470 C.ar      1 0LI        -0.1528
     17 C82         1.2170   -8.1070   16.1180 C.ar      1 0LI        -0.2569
     18 C83         0.7960   -6.7380   16.2130 C.ar      1 0LI         0.3975
     19 N81         1.3920   -5.6970   15.6110 N.ar      1 0LI        -0.4885
     20 N82         2.4830   -6.0660   14.8670 N.pl3     1 0LI         0.0744
     21 C84         3.0240   -7.3780   14.6770 C.ar      1 0LI         0.4230
     22 C1          4.2660   -6.0040   13.5630 C.ar      1 0LI         0.3706
     23 C2          3.2980   -5.2450   14.1440 C.ar      1 0LI        -0.1074
     24 C3          3.1690   -3.8560   14.0260 C.1       1 0LI        -0.0412
     25 C9          3.8540    0.9630   14.6800 C.ar      1 0LI        -0.1731
     26 C11         1.8080   -1.3360   11.5010 C.3       1 0LI        -0.0699
     27 C12         4.5610    1.6710   15.7780 C.2       1 0LI         0.6956
     28 O1          5.0700    1.0130   16.6930 O.2       1 0LI        -0.5824
     29 N2          4.5990    3.0330   15.7040 N.am      1 0LI        -0.4729
     30 C14         5.2890    5.2810   16.3210 C.ar      1 0LI        -0.1383
     31 C16         7.2430    5.7250   17.7850 C.ar      1 0LI        -0.0877
     32 C18         6.6020    3.4000   17.1890 C.ar      1 0LI        -0.1499
     33 C19         8.6220    3.7010   18.7020 C.3       1 0LI         0.6839
     34 F1          8.4210    3.9530   19.9860 F         1 0LI        -0.2334
     35 F2          8.7050    2.3810   18.5780 F         1 0LI        -0.2334
     36 F3          9.7940    4.2350   18.2910 F         1 0LI        -0.2334
     37 C23         7.3820   10.1000   20.1030 C.3       1 0LI         0.1058
     38 C25         5.5690   10.8090   21.5780 C.3       1 0LI         0.0842
     39 N4          6.4220    9.6880   21.1710 N.4       1 0LI        -0.6842
     40 H7          2.1230    1.3720   11.6750 H         1 0LI         0.1467
     41 H8          3.2970    2.7260   13.4800 H         1 0LI         0.1337
     42 H10         4.2270   -0.9810   15.5880 H         1 0LI         0.1670
     43 H15         5.9670    7.2510   16.9230 H         1 0LI         0.1359
     44 H20         8.7794    7.2178   17.7357 H         1 0LI         0.0695
     45 H20A        8.7161    6.2522   19.2490 H         1 0LI         0.0695
     46 H21         5.8390    6.5401   19.8933 H         1 0LI         0.0794
     47 H21A        7.1187    6.9966   21.0683 H         1 0LI         0.0794
     48 H22         4.9118    8.8381   19.9617 H         1 0LI         0.1097
     49 H22A        5.0162    8.1783   21.6291 H         1 0LI         0.1097
     50 H24         8.8526    8.5385   20.4444 H         1 0LI         0.0794
     51 H24A        8.8889    9.2448   18.7932 H         1 0LI         0.0794
     52 H81         2.6710   -9.4460   15.2610 H         1 0LI         0.1742
     53 H82         0.6740   -8.8830   16.6370 H         1 0LI         0.1604
     54 H83        -0.0730   -6.5280   16.8190 H         1 0LI         0.0539
     55 H1          5.0560   -5.6200   12.9350 H         1 0LI         0.0559
     56 H11         1.4214   -0.6372   10.7446 H         1 0LI         0.0602
     57 H11A        0.9734   -1.9088   11.9316 H         1 0LI         0.0602
     58 H11B        2.5228   -2.0271   11.0304 H         1 0LI         0.0602
     59 HN2         3.8448    3.4647   15.0296 H         1 0LI         0.3306
     60 H14         4.4650    5.6610   15.7350 H         1 0LI         0.1876
     61 H18         6.7700    2.3350   17.2550 H         1 0LI         0.1570
     62 H23         8.0398   10.8811   20.5118 H         1 0LI         0.1097
     63 H23A        6.8065   10.5096   19.2598 H         1 0LI         0.1097
     64 H25         6.1992   11.6596   21.8768 H         1 0LI         0.1054
     65 H25A        4.9406   10.5021   22.4271 H         1 0LI         0.1054
     66 H25B        4.9273   11.1062   20.7354 H         1 0LI         0.1054
     67 H67         7.0106    9.3892   22.0510 H         1 0LI         0.4465
@<TRIPOS>BOND
     1    1   21 ar
     2    1   22 ar
     3    2   12 1
     4    2   13 1
     5    2   15 1
     6    3    4 1
     7    3   24 3
     8    4    5 ar
     9    4    8 ar
    10    5    6 ar
    11    5   26 1
    12    6    7 ar
    13    6   40 1
    14    7   25 ar
    15    7   41 1
    16    8   25 ar
    17    8   42 1
    18    9   29 1
    19    9   30 ar
    20    9   32 ar
    21   10   30 ar
    22   10   31 ar
    23   10   43 1
    24   11   31 ar
    25   11   32 ar
    26   11   33 1
    27   12   31 1
    28   12   44 1
    29   12   45 1
    30   13   14 1
    31   13   46 1
    32   13   47 1
    33   14   39 1
    34   14   48 1
    35   14   49 1
    36   15   37 1
    37   15   50 1
    38   15   51 1
    39   16   17 ar
    40   16   21 ar
    41   16   52 1
    42   17   18 ar
    43   17   53 1
    44   18   19 ar
    45   18   54 1
    46   19   20 ar
    47   20   21 ar
    48   20   23 ar
    49   22   23 ar
    50   22   55 1
    51   23   24 1
    52   25   27 1
    53   26   56 1
    54   26   57 1
    55   26   58 1
    56   27   28 2
    57   27   29 am
    58   29   59 1
    59   30   60 1
    60   32   61 1
    61   33   34 1
    62   33   35 1
    63   33   36 1
    64   37   39 1
    65   37   62 1
    66   37   63 1
    67   38   39 1
    68   38   64 1
    69   38   65 1
    70   38   66 1
    71   39   67 1
@<TRIPOS>SUBSTRUCTURE
     1 0LI         1 GROUP   0 A     ****
@<TRIPOS>MOLECULE
3-(2-imidazo[1,2-b]pyridazin-3-ylethynyl)-4-methyl-~{N}-[4-[(4-methylpiperazin-1-yl)methyl]-3-(trifluoromethyl)phenyl]benzamide
   66    70     1     0     0
SMALL
USER_CHARGES

@<TRIPOS>ATOM
      1 N1          4.0940   -7.3400   13.8920 N.ar      1 0LI        -0.6443
      2 N3          7.3430    7.8250   19.1290 N.3       1 0LI        -0.7550
      3 C4          3.1100   -2.6620   13.9140 C.1       1 0LI        -0.0848
      4 C5          3.1240   -1.2170   13.7480 C.ar      1 0LI         0.0134
      5 C6          2.5150   -0.5470   12.6130 C.ar      1 0LI        -0.0178
      6 C7          2.5760    0.8700   12.5170 C.ar      1 0LI        -0.1470
      7 C8          3.2490    1.6490   13.5520 C.ar      1 0LI        -0.0909
      8 C10         3.7770   -0.4670   14.7510 C.ar      1 0LI        -0.0417
      9 C13         5.5040    3.8890   16.4060 C.ar      1 0LI         0.0688
     10 C15         6.1490    6.1890   17.0020 C.ar      1 0LI        -0.1002
     11 C17         7.4820    4.2910   17.8860 C.ar      1 0LI        -0.1392
     12 C20         8.1140    6.7760   18.4920 C.3       1 0LI         0.2193
     13 C21         6.4850    7.3580   20.2450 C.3       1 0LI         0.1752
     14 C22         5.5980    8.5190   20.7600 C.3       1 0LI         0.1708
     15 C24         8.2360    8.9130   19.6140 C.3       1 0LI         0.1752
     16 C81         2.3350   -8.4230   15.3470 C.ar      1 0LI        -0.1552
     17 C82         1.2170   -8.1070   16.1180 C.ar      1 0LI        -0.2595
     18 C83         0.7960   -6.7380   16.2130 C.ar      1 0LI         0.3958
     19 N81         1.3920   -5.6970   15.6110 N.ar      1 0LI        -0.4826
     20 N82         2.4830   -6.0660   14.8670 N.pl3     1 0LI         0.0728
     21 C84         3.0240   -7.3780   14.6770 C.ar      1 0LI         0.4161
     22 C1          4.2660   -6.0040   13.5630 C.ar      1 0LI         0.3638
     23 C2          3.2980   -5.2450   14.1440 C.ar      1 0LI        -0.0932
     24 C3          3.1690   -3.8560   14.0260 C.1       1 0LI        -0.0651
     25 C9          3.8540    0.9630   14.6800 C.ar      1 0LI        -0.1640
     26 C11         1.8080   -1.3360   11.5010 C.3       1 0LI        -0.0672
     27 C12         4.5610    1.6710   15.7780 C.2       1 0LI         0.6878
     28 O1          5.0700    1.0130   16.6930 O.2       1 0LI        -0.5816
     29 N2          4.5990    3.0330   15.7040 N.am      1 0LI        -0.4699
     30 C14         5.2890    5.2810   16.3210 C.ar      1 0LI        -0.1349
     31 C16         7.2430    5.7250   17.7850 C.ar      1 0LI        -0.0511
     32 C18         6.6020    3.4000   17.1890 C.ar      1 0LI        -0.1527
     33 C19         8.6220    3.7010   18.7020 C.3       1 0LI         0.6854
     34 F1          8.4210    3.9530   19.9860 F         1 0LI        -0.2396
     35 F2          8.7050    2.3810   18.5780 F         1 0LI        -0.2396
     36 F3          9.7940    4.2350   18.2910 F         1 0LI        -0.2396
     37 C23         7.3820   10.1000   20.1030 C.3       1 0LI         0.1708
     38 C25         5.5690   10.8090   21.5780 C.3       1 0LI         0.1608
     39 N4          6.4220    9.6880   21.1710 N.3       1 0LI        -0.7385
     40 H7          2.1230    1.3720   11.6750 H         1 0LI         0.1420
     41 H8          3.2970    2.7260   13.4800 H         1 0LI         0.1367
     42 H10         4.2270   -0.9810   15.5880 H         1 0LI         0.1677
     43 H15         5.9670    7.2510   16.9230 H         1 0LI         0.1639
     44 H20         8.7794    7.2178   17.7357 H         1 0LI         0.0554
     45 H20A        8.7161    6.2522   19.2490 H         1 0LI         0.0554
     46 H21         5.8390    6.5401   19.8933 H         1 0LI         0.0400
     47 H21A        7.1187    6.9966   21.0683 H         1 0LI         0.0400
     48 H22         4.9118    8.8381   19.9617 H         1 0LI         0.0369
     49 H22A        5.0162    8.1783   21.6291 H         1 0LI         0.0369
     50 H24         8.8526    8.5385   20.4444 H         1 0LI         0.0400
     51 H24A        8.8889    9.2448   18.7932 H         1 0LI         0.0400
     52 H81         2.6710   -9.4460   15.2610 H         1 0LI         0.1703
     53 H82         0.6740   -8.8830   16.6370 H         1 0LI         0.1576
     54 H83        -0.0730   -6.5280   16.8190 H         1 0LI         0.0541
     55 H1          5.0560   -5.6200   12.9350 H         1 0LI         0.0543
     56 H11         1.4214   -0.6372   10.7446 H         1 0LI         0.0564
     57 H11A        0.9734   -1.9088   11.9316 H         1 0LI         0.0564
     58 H11B        2.5228   -2.0271   11.0304 H         1 0LI         0.0564
     59 HN2         3.8448    3.4647   15.0296 H         1 0LI         0.3224
     60 H14         4.4650    5.6610   15.7350 H         1 0LI         0.1820
     61 H18         6.7700    2.3350   17.2550 H         1 0LI         0.1446
     62 H23         8.0398   10.8811   20.5118 H         1 0LI         0.0369
     63 H23A        6.8065   10.5096   19.2598 H         1 0LI         0.0369
     64 H25         6.1992   11.6596   21.8768 H         1 0LI         0.0320
     65 H25A        4.9406   10.5021   22.4271 H         1 0LI         0.0320
     66 H25B        4.9273   11.1062   20.7354 H         1 0LI         0.0320
@<TRIPOS>BOND
     1    1   21 ar
     2    1   22 ar
     3    2   12 1
     4    2   13 1
     5    2   15 1
     6    3    4 1
     7    3   24 3
     8    4    5 ar
     9    4    8 ar
    10    5    6 ar
    11    5   26 1
    12    6    7 ar
    13    6   40 1
    14    7   25 ar
    15    7   41 1
    16    8   25 ar
    17    8   42 1
    18    9   29 1
    19    9   30 ar
    20    9   32 ar
    21   10   30 ar
    22   10   31 ar
    23   10   43 1
    24   11   31 ar
    25   11   32 ar
    26   11   33 1
    27   12   31 1
    28   12   44 1
    29   12   45 1
    30   13   14 1
    31   13   46 1
    32   13   47 1
    33   14   39 1
    34   14   48 1
    35   14   49 1
    36   15   37 1
    37   15   50 1
    38   15   51 1
    39   16   17 ar
    40   16   21 ar
    41   16   52 1
    42   17   18 ar
    43   17   53 1
    44   18   19 ar
    45   18   54 1
    46   19   20 ar
    47   20   21 ar
    48   20   23 ar
    49   22   23 ar
    50   22   55 1
    51   23   24 1
    52   25   27 1
    53   26   56 1
    54   26   57 1
    55   26   58 1
    56   27   28 2
    57   27   29 am
    58   29   59 1
    59   30   60 1
    60   32   61 1
    61   33   34 1
    62   33   35 1
    63   33   36 1
    64   37   39 1
    65   37   62 1
    66   37   63 1
    67   38   39 1
    68   38   64 1
    69   38   65 1
    70   38   66 1
@<TRIPOS>SUBSTRUCTURE
     1 0LI         1 GROUP   0 A     ****
