@<TRIPOS>MOLECULE
LEV
49   52    1
SMALL
USER_CHARGES


@<TRIPOS>ATOM
      1 C1          0.7690  -10.0410   23.2090 C.3       1 LEV         0.0000 
      2 O2          0.2710   -8.8450   22.5800 O.3       1 LEV         0.0000 
      3 C3          0.4890   -8.6780   21.2440 C.ar      1 LEV         0.0000 
      4 C4          1.3230   -9.5030   20.5040 C.ar      1 LEV         0.0000 
      5 C5          1.5050   -9.2990   19.1330 C.ar      1 LEV         0.0000 
      6 N6          2.3280  -10.1040   18.4270 N.ar      1 LEV         0.0000 
      7 C7          2.5180   -9.8710   17.1510 C.ar      1 LEV         0.0000 
      8 C8          1.8670   -8.8810   16.4300 C.ar      1 LEV         0.0000 
      9 C9          1.0150   -8.0240   17.0740 C.ar      1 LEV         0.0000 
     10 C10         0.8130   -8.2320   18.4730 C.ar      1 LEV         0.0000 
     11 C11        -0.0130   -7.3910   19.2280 C.ar      1 LEV         0.0000 
     12 C12        -0.1860   -7.5970   20.6010 C.ar      1 LEV         0.0000 
     13 C13        -1.0080   -6.6110   21.3510 C.2       1 LEV         0.0000 
     14 O14        -1.2460   -5.5200   20.8270 O.2       1 LEV         0.0000 
     15 N15        -1.3750   -6.7780   22.6400 N.am      1 LEV         0.0000 
     16 O16         0.3070   -7.0390   16.4700 O.3       1 LEV         0.0000 
     17 C17         0.5510   -6.6830   15.1750 C.ar      1 LEV         0.0000 
     18 C18         0.0590   -7.4230   14.1030 C.ar      1 LEV         0.0000 
     19 C19         0.2960   -6.9790   12.8120 C.ar      1 LEV         0.0000 
     20 C20         1.0260   -5.8400   12.5650 C.ar      1 LEV         0.0000 
     21 C21         1.4400   -5.0650   13.6590 C.ar      1 LEV         0.0000 
     22 C22         1.2210   -5.5060   14.9430 C.ar      1 LEV         0.0000 
     23 N23         1.2040   -5.3670   11.2560 N.am      1 LEV         0.0000 
     24 C24         2.2670   -4.6340   10.8110 C.2       1 LEV         0.0000 
     25 O25         3.2560   -4.4400   11.5050 O.2       1 LEV         0.0000 
     26 N26         2.1340   -4.1540    9.5570 N.am      1 LEV         0.0000 
     27 C27         3.0780   -3.2500    8.9200 C.3       1 LEV         0.0000 
     28 C28         4.3920   -3.7920    8.4410 C.3       1 LEV         0.0000 
     29 C29         3.3070   -3.4250    7.4310 C.3       1 LEV         0.0000 
     30 CL         -0.2950   -7.9130   11.4620 Cl        1 LEV         0.0000 
     31 H1          0.5143  -10.0258   24.2790 H         1 LEV         0.0000 
     32 H2          1.8618  -10.0886   23.0928 H         1 LEV         0.0000 
     33 H3          0.3112  -10.9221   22.7356 H         1 LEV         0.0000 
     34 H4          1.8390  -10.3150   20.9940 H         1 LEV         0.0000 
     35 H5          3.2290  -10.4920   16.6260 H         1 LEV         0.0000 
     36 H6          2.0310   -8.7870   15.3670 H         1 LEV         0.0000 
     37 H7         -0.5240   -6.5720   18.7440 H         1 LEV         0.0000 
     38 H8         -1.9846   -6.0122   23.1419 H         1 LEV         0.0000 
     39 H9         -1.0643   -7.6798   23.1879 H         1 LEV         0.0000 
     40 H10        -0.5000   -8.3310   14.2750 H         1 LEV         0.0000 
     41 H11         1.9330   -4.1180   13.4920 H         1 LEV         0.0000 
     42 H12         1.5790   -4.9210   15.7770 H         1 LEV         0.0000 
     43 H13         0.4475   -5.5804   10.4864 H         1 LEV         0.0000 
     44 H14         1.2404   -4.4903    9.0108 H         1 LEV         0.0000 
     45 H15         2.7759   -2.4325    9.5912 H         1 LEV         0.0000 
     46 H16         5.2042   -3.1254    8.7667 H         1 LEV         0.0000 
     47 H17         4.5502   -4.7957    8.8624 H         1 LEV         0.0000 
     48 H18         2.5588   -4.1212    7.0243 H         1 LEV         0.0000 
     49 H19         3.2128   -2.4510    6.9285 H         1 LEV         0.0000 
@<TRIPOS>BOND
     1    1   31 1    
     2    1   32 1    
     3    1   33 1    
     4    1    2 1    
     5    2    3 1    
     6    3    4 ar   
     7    3   12 ar   
     8    4   34 1    
     9    4    5 ar   
    10    5    6 ar   
    11    5   10 ar   
    12    6    7 ar   
    13    7   35 1    
    14    7    8 ar   
    15    8    9 ar   
    16    8   36 1    
    17    9   10 ar   
    18    9   16 1    
    19   10   11 ar   
    20   11   12 ar   
    21   11   37 1    
    22   12   13 1    
    23   13   15 am   BACKBONE|DICT|INTERRES
    24   13   14 2    
    25   15   38 1    
    26   15   39 1    
    27   16   17 1    
    28   17   18 ar   
    29   17   22 ar   
    30   18   40 1    
    31   18   19 ar   
    32   19   20 ar   
    33   19   30 1    
    34   20   21 ar   
    35   20   23 1    
    36   21   22 ar   
    37   21   41 1    
    38   22   42 1    
    39   23   43 1    
    40   23   24 am   BACKBONE|DICT|INTERRES
    41   24   25 2    
    42   24   26 am   BACKBONE|DICT|INTERRES
    43   26   44 1    
    44   26   27 1    
    45   27   45 1    
    46   27   28 1    
    47   27   29 1    
    48   28   46 1    
    49   28   47 1    
    50   28   29 1    
    51   29   48 1    
    52   29   49 1    
@<TRIPOS>SUBSTRUCTURE
     1 LEV         1 GROUP             0       ****    0 ROOT    
@<TRIPOS>MOLECULE
LEV
48   51    1
SMALL
USER_CHARGES


@<TRIPOS>ATOM
      1 C1          0.7690  -10.0410   23.2090 C.3       1 LEV         0.0000 
      2 O2          0.2710   -8.8450   22.5800 O.3       1 LEV         0.0000 
      3 C3          0.4890   -8.6780   21.2440 C.ar      1 LEV         0.0000 
      4 C4          1.3230   -9.5030   20.5040 C.ar      1 LEV         0.0000 
      5 C5          1.5050   -9.2990   19.1330 C.ar      1 LEV         0.0000 
      6 N6          2.3280  -10.1040   18.4270 N.ar      1 LEV         0.0000 
      7 C7          2.5180   -9.8710   17.1510 C.ar      1 LEV         0.0000 
      8 C8          1.8670   -8.8810   16.4300 C.ar      1 LEV         0.0000 
      9 C9          1.0150   -8.0240   17.0740 C.ar      1 LEV         0.0000 
     10 C10         0.8130   -8.2320   18.4730 C.ar      1 LEV         0.0000 
     11 C11        -0.0130   -7.3910   19.2280 C.ar      1 LEV         0.0000 
     12 C12        -0.1860   -7.5970   20.6010 C.ar      1 LEV         0.0000 
     13 C13        -1.0080   -6.6110   21.3510 C.2       1 LEV         0.0000 
     14 O14        -1.2460   -5.5200   20.8270 O.co2     1 LEV         0.0000 
     15 N15        -1.3750   -6.7780   22.6400 N.2       1 LEV         0.0000 
     16 O16         0.3070   -7.0390   16.4700 O.3       1 LEV         0.0000 
     17 C17         0.5510   -6.6830   15.1750 C.ar      1 LEV         0.0000 
     18 C18         0.0590   -7.4230   14.1030 C.ar      1 LEV         0.0000 
     19 C19         0.2960   -6.9790   12.8120 C.ar      1 LEV         0.0000 
     20 C20         1.0260   -5.8400   12.5650 C.ar      1 LEV         0.0000 
     21 C21         1.4400   -5.0650   13.6590 C.ar      1 LEV         0.0000 
     22 C22         1.2210   -5.5060   14.9430 C.ar      1 LEV         0.0000 
     23 N23         1.2040   -5.3670   11.2560 N.am      1 LEV         0.0000 
     24 C24         2.2670   -4.6340   10.8110 C.2       1 LEV         0.0000 
     25 O25         3.2560   -4.4400   11.5050 O.2       1 LEV         0.0000 
     26 N26         2.1340   -4.1540    9.5570 N.am      1 LEV         0.0000 
     27 C27         3.0780   -3.2500    8.9200 C.3       1 LEV         0.0000 
     28 C28         4.3920   -3.7920    8.4410 C.3       1 LEV         0.0000 
     29 C29         3.3070   -3.4250    7.4310 C.3       1 LEV         0.0000 
     30 CL         -0.2950   -7.9130   11.4620 Cl        1 LEV         0.0000 
     31 H1          0.5143  -10.0258   24.2790 H         1 LEV         0.0000 
     32 H2          1.8618  -10.0886   23.0928 H         1 LEV         0.0000 
     33 H3          0.3112  -10.9221   22.7356 H         1 LEV         0.0000 
     34 H4          1.8390  -10.3150   20.9940 H         1 LEV         0.0000 
     35 H5          3.2290  -10.4920   16.6260 H         1 LEV         0.0000 
     36 H6          2.0310   -8.7870   15.3670 H         1 LEV         0.0000 
     37 H7         -0.5240   -6.5720   18.7440 H         1 LEV         0.0000 
     38 H9         -1.0643   -7.6798   23.1879 H         1 LEV         0.0000 
     39 H10        -0.5000   -8.3310   14.2750 H         1 LEV         0.0000 
     40 H11         1.9330   -4.1180   13.4920 H         1 LEV         0.0000 
     41 H12         1.5790   -4.9210   15.7770 H         1 LEV         0.0000 
     42 H13         0.4475   -5.5804   10.4864 H         1 LEV         0.0000 
     43 H14         1.2404   -4.4903    9.0108 H         1 LEV         0.0000 
     44 H15         2.7759   -2.4325    9.5912 H         1 LEV         0.0000 
     45 H16         5.2042   -3.1254    8.7667 H         1 LEV         0.0000 
     46 H17         4.5502   -4.7957    8.8624 H         1 LEV         0.0000 
     47 H18         2.5588   -4.1212    7.0243 H         1 LEV         0.0000 
     48 H19         3.2128   -2.4510    6.9285 H         1 LEV         0.0000 
@<TRIPOS>BOND
     1    1   31 1    
     2    1   32 1    
     3    1   33 1    
     4    1    2 1    
     5    2    3 1    
     6    3    4 ar   
     7    3   12 ar   
     8    4   34 1    
     9    4    5 ar   
    10    5    6 ar   
    11    5   10 ar   
    12    6    7 ar   
    13    7   35 1    
    14    7    8 ar   
    15    8    9 ar   
    16    8   36 1    
    17    9   10 ar   
    18    9   16 1    
    19   10   11 ar   
    20   11   12 ar   
    21   11   37 1    
    22   12   13 1    
    23   13   15 2    
    24   13   14 1    
    25   15   38 1    
    26   16   17 1    
    27   17   18 ar   
    28   17   22 ar   
    29   18   39 1    
    30   18   19 ar   
    31   19   20 ar   
    32   19   30 1    
    33   20   21 ar   
    34   20   23 1    
    35   21   22 ar   
    36   21   40 1    
    37   22   41 1    
    38   23   42 1    
    39   23   24 am   BACKBONE|DICT|INTERRES
    40   24   25 2    
    41   24   26 am   BACKBONE|DICT|INTERRES
    42   26   43 1    
    43   26   27 1    
    44   27   44 1    
    45   27   28 1    
    46   27   29 1    
    47   28   45 1    
    48   28   46 1    
    49   28   29 1    
    50   29   47 1    
    51   29   48 1    
@<TRIPOS>SUBSTRUCTURE
     1 LEV         1 GROUP             0       ****    0 ROOT    
@<TRIPOS>MOLECULE
LEV
48   51    1
SMALL
USER_CHARGES


@<TRIPOS>ATOM
      1 C1          0.7690  -10.0410   23.2090 C.3       1 LEV         0.0000 
      2 O2          0.2710   -8.8450   22.5800 O.3       1 LEV         0.0000 
      3 C3          0.4890   -8.6780   21.2440 C.ar      1 LEV         0.0000 
      4 C4          1.3230   -9.5030   20.5040 C.ar      1 LEV         0.0000 
      5 C5          1.5050   -9.2990   19.1330 C.ar      1 LEV         0.0000 
      6 N6          2.3280  -10.1040   18.4270 N.ar      1 LEV         0.0000 
      7 C7          2.5180   -9.8710   17.1510 C.ar      1 LEV         0.0000 
      8 C8          1.8670   -8.8810   16.4300 C.ar      1 LEV         0.0000 
      9 C9          1.0150   -8.0240   17.0740 C.ar      1 LEV         0.0000 
     10 C10         0.8130   -8.2320   18.4730 C.ar      1 LEV         0.0000 
     11 C11        -0.0130   -7.3910   19.2280 C.ar      1 LEV         0.0000 
     12 C12        -0.1860   -7.5970   20.6010 C.ar      1 LEV         0.0000 
     13 C13        -1.0080   -6.6110   21.3510 C.2       1 LEV         0.0000 
     14 O14        -1.2460   -5.5200   20.8270 O.co2     1 LEV         0.0000 
     15 N15        -1.3750   -6.7780   22.6400 N.2       1 LEV         0.0000 
     16 O16         0.3070   -7.0390   16.4700 O.3       1 LEV         0.0000 
     17 C17         0.5510   -6.6830   15.1750 C.ar      1 LEV         0.0000 
     18 C18         0.0590   -7.4230   14.1030 C.ar      1 LEV         0.0000 
     19 C19         0.2960   -6.9790   12.8120 C.ar      1 LEV         0.0000 
     20 C20         1.0260   -5.8400   12.5650 C.ar      1 LEV         0.0000 
     21 C21         1.4400   -5.0650   13.6590 C.ar      1 LEV         0.0000 
     22 C22         1.2210   -5.5060   14.9430 C.ar      1 LEV         0.0000 
     23 N23         1.2040   -5.3670   11.2560 N.am      1 LEV         0.0000 
     24 C24         2.2670   -4.6340   10.8110 C.2       1 LEV         0.0000 
     25 O25         3.2560   -4.4400   11.5050 O.2       1 LEV         0.0000 
     26 N26         2.1340   -4.1540    9.5570 N.am      1 LEV         0.0000 
     27 C27         3.0780   -3.2500    8.9200 C.3       1 LEV         0.0000 
     28 C28         4.3920   -3.7920    8.4410 C.3       1 LEV         0.0000 
     29 C29         3.3070   -3.4250    7.4310 C.3       1 LEV         0.0000 
     30 CL         -0.2950   -7.9130   11.4620 Cl        1 LEV         0.0000 
     31 H1          0.5143  -10.0258   24.2790 H         1 LEV         0.0000 
     32 H2          1.8618  -10.0886   23.0928 H         1 LEV         0.0000 
     33 H3          0.3112  -10.9221   22.7356 H         1 LEV         0.0000 
     34 H4          1.8390  -10.3150   20.9940 H         1 LEV         0.0000 
     35 H5          3.2290  -10.4920   16.6260 H         1 LEV         0.0000 
     36 H6          2.0310   -8.7870   15.3670 H         1 LEV         0.0000 
     37 H7         -0.5240   -6.5720   18.7440 H         1 LEV         0.0000 
     38 H8         -1.9846   -6.0122   23.1419 H         1 LEV         0.0000 
     39 H10        -0.5000   -8.3310   14.2750 H         1 LEV         0.0000 
     40 H11         1.9330   -4.1180   13.4920 H         1 LEV         0.0000 
     41 H12         1.5790   -4.9210   15.7770 H         1 LEV         0.0000 
     42 H13         0.4475   -5.5804   10.4864 H         1 LEV         0.0000 
     43 H14         1.2404   -4.4903    9.0108 H         1 LEV         0.0000 
     44 H15         2.7759   -2.4325    9.5912 H         1 LEV         0.0000 
     45 H16         5.2042   -3.1254    8.7667 H         1 LEV         0.0000 
     46 H17         4.5502   -4.7957    8.8624 H         1 LEV         0.0000 
     47 H18         2.5588   -4.1212    7.0243 H         1 LEV         0.0000 
     48 H19         3.2128   -2.4510    6.9285 H         1 LEV         0.0000 
@<TRIPOS>BOND
     1    1   31 1    
     2    1   32 1    
     3    1   33 1    
     4    1    2 1    
     5    2    3 1    
     6    3    4 ar   
     7    3   12 ar   
     8    4   34 1    
     9    4    5 ar   
    10    5    6 ar   
    11    5   10 ar   
    12    6    7 ar   
    13    7   35 1    
    14    7    8 ar   
    15    8    9 ar   
    16    8   36 1    
    17    9   10 ar   
    18    9   16 1    
    19   10   11 ar   
    20   11   12 ar   
    21   11   37 1    
    22   12   13 1    
    23   13   15 2    
    24   13   14 1    
    25   15   38 1    
    26   16   17 1    
    27   17   18 ar   
    28   17   22 ar   
    29   18   39 1    
    30   18   19 ar   
    31   19   20 ar   
    32   19   30 1    
    33   20   21 ar   
    34   20   23 1    
    35   21   22 ar   
    36   21   40 1    
    37   22   41 1    
    38   23   42 1    
    39   23   24 am   BACKBONE|DICT|INTERRES
    40   24   25 2    
    41   24   26 am   BACKBONE|DICT|INTERRES
    42   26   43 1    
    43   26   27 1    
    44   27   44 1    
    45   27   28 1    
    46   27   29 1    
    47   28   45 1    
    48   28   46 1    
    49   28   29 1    
    50   29   47 1    
    51   29   48 1    
@<TRIPOS>SUBSTRUCTURE
     1 LEV         1 GROUP             0       ****    0 ROOT    
