@<TRIPOS>MOLECULE
~{N}-(2-chloro-6-methyl-phenyl)-2-[[6-[4-(2-hydroxyethyl)piperazin-1-yl]-2-methyl-1~{H}-pyrimidin-2-ylium-4-yl]amino]thiazole-5-carboxamide
   60    63     1     0     0
SMALL
USER_CHARGES

@<TRIPOS>ATOM
      1 C1         46.6110   82.6200   38.8410 C.ar      1 1N1         0.3792
      2 C2         46.7750   82.0670   40.0440 C.ar      1 1N1        -0.2687
      3 C3         47.6870   82.4940   41.1480 C.2       1 1N1         0.7094
      4 N6         39.1540   74.8480   36.4620 N.3       1 1N1        -0.7350
      5 C7         51.3280   84.7110   43.8460 C.ar      1 1N1        -0.1136
      6 C8         51.6490   83.9220   42.7330 C.ar      1 1N1        -0.1182
      7 C9         50.6600   83.5350   41.8220 C.ar      1 1N1        -0.0453
      8 C10        51.0540   82.7460   40.6060 C.3       1 1N1        -0.0595
      9 C11        43.3450   79.0450   38.8240 C.ar      1 1N1         0.7835
     10 C12        42.2600   78.4660   38.1410 C.ar      1 1N1        -0.4002
     11 C13        41.6410   77.3640   38.7640 C.ar      1 1N1         0.4185
     12 C14        43.1380   77.5250   40.5610 C.cat     1 1N1         0.3964
     13 C15        43.6000   77.0970   41.9190 C.3       1 1N1        -0.0781
     14 C16        39.8200   75.5660   38.8090 C.3       1 1N1         0.1896
     15 C19        39.9050   77.1490   36.8840 C.3       1 1N1         0.1896
     16 C20        39.2210   73.7370   35.5030 C.3       1 1N1         0.1647
     17 C21        38.3550   73.8890   34.2270 C.3       1 1N1         0.1332
     18 N          43.9770   80.1180   38.2570 N.pl3     1 1N1        -0.7254
     19 C          45.0120   80.8680   38.7420 C.ar      1 1N1         0.5274
     20 N1         45.5400   81.9390   38.1020 N.ar      1 1N1        -0.6157
     21 S          45.8120   80.6770   40.2960 S.3       1 1N1         0.0984
     22 N2         48.3930   83.6260   41.1040 N.am      1 1N1        -0.4550
     23 C4         49.3330   83.9150   42.0370 C.ar      1 1N1         0.0360
     24 C5         49.0210   84.6530   43.2010 C.ar      1 1N1        -0.0025
     25 C6         50.0050   85.0710   44.1070 C.ar      1 1N1        -0.1121
     26 CL         47.3940   85.0560   43.5890 Cl        1 1N1        -0.0980
     27 O          47.7260   81.7050   42.0920 O.2       1 1N1        -0.5754
     28 N3         42.0970   76.9050   39.9750 N.pl3     1 1N1        -0.6204
     29 N4         43.7640   78.5580   40.0120 N.ar      1 1N1        -0.5829
     30 N5         40.4900   76.7170   38.1650 N.pl3     1 1N1        -0.6703
     31 C17        39.6220   74.4100   37.7990 C.3       1 1N1         0.1463
     32 C18        39.9110   75.9790   35.8960 C.3       1 1N1         0.1463
     33 O1         37.4960   75.0150   34.2610 O.3       1 1N1        -0.6000
     34 H1         47.1860   83.4530   38.4630 H         1 1N1         0.0641
     35 H7         52.1130   85.0440   44.5090 H         1 1N1         0.1480
     36 H8         52.6710   83.6090   42.5770 H         1 1N1         0.1455
     37 H101       50.1593   82.5287   40.0042 H         1 1N1         0.0546
     38 H102       51.5242   81.8018   40.9181 H         1 1N1         0.0546
     39 H103       51.7671   83.3298   40.0053 H         1 1N1         0.0546
     40 H12        41.9190   78.8460   37.1890 H         1 1N1         0.1916
     41 H151       44.4548   77.7167   42.2276 H         1 1N1         0.0982
     42 H152       43.9056   76.0408   41.8863 H         1 1N1         0.0982
     43 H153       42.7791   77.2190   42.6409 H         1 1N1         0.0982
     44 H161       40.4359   75.2044   39.6456 H         1 1N1         0.0767
     45 H162       38.8356   75.8792   39.1870 H         1 1N1         0.0767
     46 H191       38.8701   77.4837   37.0479 H         1 1N1         0.0767
     47 H192       40.4977   77.9788   36.4715 H         1 1N1         0.0767
     48 H201       40.2576   73.6141   35.1561 H         1 1N1         0.0586
     49 H202       38.8856   72.8102   35.9915 H         1 1N1         0.0586
     50 H211       39.0101   73.9996   33.3503 H         1 1N1         0.0312
     51 H212       37.7245   72.9962   34.1032 H         1 1N1         0.0312
     52 HN         43.6592   80.4849   37.2699 H         1 1N1         0.4795
     53 HN2        48.2185   84.3520   40.2962 H         1 1N1         0.3249
     54 H6         49.7480   85.6530   44.9790 H         1 1N1         0.1563
     55 H171       38.8860   73.7198   38.2371 H         1 1N1         0.0515
     56 H172       40.5905   73.8981   37.6989 H         1 1N1         0.0515
     57 H181       40.9486   75.6672   35.7059 H         1 1N1         0.0515
     58 H182       39.4447   76.2964   34.9517 H         1 1N1         0.0515
     59 HO1        36.8323   75.2264   33.4096 H         1 1N1         0.4154
     60 H60        41.6125   76.0412   40.4536 H         1 1N1         0.4818
@<TRIPOS>BOND
     1    1    2 ar
     2    1   20 ar
     3    1   34 1
     4    2    3 1
     5    2   21 ar
     6    3   22 am
     7    3   27 2
     8    4   16 1
     9    4   31 1
    10    4   32 1
    11    5    6 ar
    12    5   25 ar
    13    5   35 1
    14    6    7 ar
    15    6   36 1
    16    7    8 1
    17    7   23 ar
    18    8   37 1
    19    8   38 1
    20    8   39 1
    21    9   10 ar
    22    9   18 1
    23    9   29 ar
    24   10   11 ar
    25   10   40 1
    26   11   28 ar
    27   11   30 1
    28   12   13 1
    29   12   28 ar
    30   12   29 ar
    31   13   41 1
    32   13   42 1
    33   13   43 1
    34   14   30 1
    35   14   31 1
    36   14   44 1
    37   14   45 1
    38   15   30 1
    39   15   32 1
    40   15   46 1
    41   15   47 1
    42   16   17 1
    43   16   48 1
    44   16   49 1
    45   17   33 1
    46   17   50 1
    47   17   51 1
    48   18   19 1
    49   18   52 1
    50   19   20 ar
    51   19   21 ar
    52   22   23 1
    53   22   53 1
    54   23   24 ar
    55   24   25 ar
    56   24   26 1
    57   25   54 1
    58   28   60 1
    59   31   55 1
    60   31   56 1
    61   32   57 1
    62   32   58 1
    63   33   59 1
@<TRIPOS>SUBSTRUCTURE
     1 1N1         1 GROUP   0 A     ****
@<TRIPOS>MOLECULE
~{N}-(2-chloro-6-methyl-phenyl)-2-[[6-[4-(2-hydroxyethyl)piperazin-4-ium-1-yl]-2-methyl-pyrimidin-4-yl]amino]thiazole-5-carboxamide
   60    63     1     0     0
SMALL
USER_CHARGES

@<TRIPOS>ATOM
      1 C1         46.6110   82.6200   38.8410 C.ar      1 1N1         0.3919
      2 C2         46.7750   82.0670   40.0440 C.ar      1 1N1        -0.3256
      3 C3         47.6870   82.4940   41.1480 C.2       1 1N1         0.7216
      4 N6         39.1540   74.8480   36.4620 N.4       1 1N1        -0.6858
      5 C7         51.3280   84.7110   43.8460 C.ar      1 1N1        -0.1144
      6 C8         51.6490   83.9220   42.7330 C.ar      1 1N1        -0.1240
      7 C9         50.6600   83.5350   41.8220 C.ar      1 1N1        -0.0787
      8 C10        51.0540   82.7460   40.6060 C.3       1 1N1        -0.0528
      9 C11        43.3450   79.0450   38.8240 C.ar      1 1N1         0.7113
     10 C12        42.2600   78.4660   38.1410 C.ar      1 1N1        -0.4366
     11 C13        41.6410   77.3640   38.7640 C.ar      1 1N1         0.6658
     12 C14        43.1380   77.5250   40.5610 C.ar      1 1N1         0.7277
     13 C15        43.6000   77.0970   41.9190 C.3       1 1N1        -0.1441
     14 C16        39.8200   75.5660   38.8090 C.3       1 1N1         0.1724
     15 C19        39.9050   77.1490   36.8840 C.3       1 1N1         0.1724
     16 C20        39.2210   73.7370   35.5030 C.3       1 1N1         0.0915
     17 C21        38.3550   73.8890   34.2270 C.3       1 1N1         0.1188
     18 N          43.9770   80.1180   38.2570 N.pl3     1 1N1        -0.8148
     19 C          45.0120   80.8680   38.7420 C.ar      1 1N1         0.5643
     20 N1         45.5400   81.9390   38.1020 N.ar      1 1N1        -0.6865
     21 S          45.8120   80.6770   40.2960 S.3       1 1N1         0.1478
     22 N2         48.3930   83.6260   41.1040 N.am      1 1N1        -0.4740
     23 C4         49.3330   83.9150   42.0370 C.ar      1 1N1         0.0473
     24 C5         49.0210   84.6530   43.2010 C.ar      1 1N1         0.0322
     25 C6         50.0050   85.0710   44.1070 C.ar      1 1N1        -0.1212
     26 CL         47.3940   85.0560   43.5890 Cl        1 1N1        -0.0752
     27 O          47.7260   81.7050   42.0920 O.2       1 1N1        -0.5841
     28 N3         42.0970   76.9050   39.9750 N.ar      1 1N1        -0.7734
     29 N4         43.7640   78.5580   40.0120 N.ar      1 1N1        -0.7451
     30 N5         40.4900   76.7170   38.1650 N.pl3     1 1N1        -0.7700
     31 C17        39.6220   74.4100   37.7990 C.3       1 1N1         0.1045
     32 C18        39.9110   75.9790   35.8960 C.3       1 1N1         0.1045
     33 O1         37.4960   75.0150   34.2610 O.3       1 1N1        -0.5778
     34 H1         47.1860   83.4530   38.4630 H         1 1N1         0.0485
     35 H7         52.1130   85.0440   44.5090 H         1 1N1         0.1436
     36 H8         52.6710   83.6090   42.5770 H         1 1N1         0.1399
     37 H101       50.1593   82.5287   40.0042 H         1 1N1         0.0463
     38 H102       51.5242   81.8018   40.9181 H         1 1N1         0.0463
     39 H103       51.7671   83.3298   40.0053 H         1 1N1         0.0463
     40 H12        41.9190   78.8460   37.1890 H         1 1N1         0.1579
     41 H151       44.4548   77.7167   42.2276 H         1 1N1         0.0769
     42 H152       43.9056   76.0408   41.8863 H         1 1N1         0.0769
     43 H153       42.7791   77.2190   42.6409 H         1 1N1         0.0769
     44 H161       40.4359   75.2044   39.6456 H         1 1N1         0.0873
     45 H162       38.8356   75.8792   39.1870 H         1 1N1         0.0873
     46 H191       38.8701   77.4837   37.0479 H         1 1N1         0.0873
     47 H192       40.4977   77.9788   36.4715 H         1 1N1         0.0873
     48 H201       40.2576   73.6141   35.1561 H         1 1N1         0.1213
     49 H202       38.8856   72.8102   35.9915 H         1 1N1         0.1213
     50 H211       39.0101   73.9996   33.3503 H         1 1N1         0.0445
     51 H212       37.7245   72.9962   34.1032 H         1 1N1         0.0445
     52 HN         43.6592   80.4849   37.2699 H         1 1N1         0.4686
     53 HN2        48.2185   84.3520   40.2962 H         1 1N1         0.3198
     54 H6         49.7480   85.6530   44.9790 H         1 1N1         0.1532
     55 H171       38.8860   73.7198   38.2371 H         1 1N1         0.1111
     56 H172       40.5905   73.8981   37.6989 H         1 1N1         0.1111
     57 H181       40.9486   75.6672   35.7059 H         1 1N1         0.1111
     58 H182       39.4447   76.2964   34.9517 H         1 1N1         0.1111
     59 HO1        36.8323   75.2264   33.4096 H         1 1N1         0.4418
     60 H60        38.1173   75.1834   36.6129 H         1 1N1         0.4414
@<TRIPOS>BOND
     1    1    2 ar
     2    1   20 ar
     3    1   34 1
     4    2    3 1
     5    2   21 ar
     6    3   22 am
     7    3   27 2
     8    4   16 1
     9    4   31 1
    10    4   32 1
    11    4   60 1
    12    5    6 ar
    13    5   25 ar
    14    5   35 1
    15    6    7 ar
    16    6   36 1
    17    7    8 1
    18    7   23 ar
    19    8   37 1
    20    8   38 1
    21    8   39 1
    22    9   10 ar
    23    9   18 1
    24    9   29 ar
    25   10   11 ar
    26   10   40 1
    27   11   28 ar
    28   11   30 1
    29   12   13 1
    30   12   28 ar
    31   12   29 ar
    32   13   41 1
    33   13   42 1
    34   13   43 1
    35   14   30 1
    36   14   31 1
    37   14   44 1
    38   14   45 1
    39   15   30 1
    40   15   32 1
    41   15   46 1
    42   15   47 1
    43   16   17 1
    44   16   48 1
    45   16   49 1
    46   17   33 1
    47   17   50 1
    48   17   51 1
    49   18   19 1
    50   18   52 1
    51   19   20 ar
    52   19   21 ar
    53   22   23 1
    54   22   53 1
    55   23   24 ar
    56   24   25 ar
    57   24   26 1
    58   25   54 1
    59   31   55 1
    60   31   56 1
    61   32   57 1
    62   32   58 1
    63   33   59 1
@<TRIPOS>SUBSTRUCTURE
     1 1N1         1 GROUP   0 A     ****
@<TRIPOS>MOLECULE
~{N}-(2-chloro-6-methyl-phenyl)-2-[[6-[4-(2-hydroxyethyl)piperazin-1-yl]-2-methyl-pyrimidin-4-yl]amino]thiazole-5-carboxamide
   59    62     1     0     0
SMALL
USER_CHARGES

@<TRIPOS>ATOM
      1 C1         46.6110   82.6200   38.8410 C.ar      1 1N1         0.3963
      2 C2         46.7750   82.0670   40.0440 C.ar      1 1N1        -0.2959
      3 C3         47.6870   82.4940   41.1480 C.2       1 1N1         0.7250
      4 N6         39.1540   74.8480   36.4620 N.3       1 1N1        -0.7437
      5 C7         51.3280   84.7110   43.8460 C.ar      1 1N1        -0.1216
      6 C8         51.6490   83.9220   42.7330 C.ar      1 1N1        -0.1252
      7 C9         50.6600   83.5350   41.8220 C.ar      1 1N1        -0.0824
      8 C10        51.0540   82.7460   40.6060 C.3       1 1N1        -0.0526
      9 C11        43.3450   79.0450   38.8240 C.ar      1 1N1         0.7036
     10 C12        42.2600   78.4660   38.1410 C.ar      1 1N1        -0.4502
     11 C13        41.6410   77.3640   38.7640 C.ar      1 1N1         0.6920
     12 C14        43.1380   77.5250   40.5610 C.ar      1 1N1         0.6974
     13 C15        43.6000   77.0970   41.9190 C.3       1 1N1        -0.1357
     14 C16        39.8200   75.5660   38.8090 C.3       1 1N1         0.2016
     15 C19        39.9050   77.1490   36.8840 C.3       1 1N1         0.2016
     16 C20        39.2210   73.7370   35.5030 C.3       1 1N1         0.1709
     17 C21        38.3550   73.8890   34.2270 C.3       1 1N1         0.1288
     18 N          43.9770   80.1180   38.2570 N.pl3     1 1N1        -0.8348
     19 C          45.0120   80.8680   38.7420 C.ar      1 1N1         0.6589
     20 N1         45.5400   81.9390   38.1020 N.ar      1 1N1        -0.6461
     21 S          45.8120   80.6770   40.2960 S.3       1 1N1        -0.0538
     22 N2         48.3930   83.6260   41.1040 N.am      1 1N1        -0.4804
     23 C4         49.3330   83.9150   42.0370 C.ar      1 1N1         0.0574
     24 C5         49.0210   84.6530   43.2010 C.ar      1 1N1         0.0306
     25 C6         50.0050   85.0710   44.1070 C.ar      1 1N1        -0.1226
     26 CL         47.3940   85.0560   43.5890 Cl        1 1N1        -0.0747
     27 O          47.7260   81.7050   42.0920 O.2       1 1N1        -0.5855
     28 N3         42.0970   76.9050   39.9750 N.ar      1 1N1        -0.7656
     29 N4         43.7640   78.5580   40.0120 N.ar      1 1N1        -0.7147
     30 N5         40.4900   76.7170   38.1650 N.pl3     1 1N1        -0.7681
     31 C17        39.6220   74.4100   37.7990 C.3       1 1N1         0.1684
     32 C18        39.9110   75.9790   35.8960 C.3       1 1N1         0.1684
     33 O1         37.4960   75.0150   34.2610 O.3       1 1N1        -0.6055
     34 H1         47.1860   83.4530   38.4630 H         1 1N1         0.0418
     35 H7         52.1130   85.0440   44.5090 H         1 1N1         0.1383
     36 H8         52.6710   83.6090   42.5770 H         1 1N1         0.1361
     37 H101       50.1593   82.5287   40.0042 H         1 1N1         0.0467
     38 H102       51.5242   81.8018   40.9181 H         1 1N1         0.0467
     39 H103       51.7671   83.3298   40.0053 H         1 1N1         0.0467
     40 H12        41.9190   78.8460   37.1890 H         1 1N1         0.1534
     41 H151       44.4548   77.7167   42.2276 H         1 1N1         0.0646
     42 H152       43.9056   76.0408   41.8863 H         1 1N1         0.0646
     43 H153       42.7791   77.2190   42.6409 H         1 1N1         0.0646
     44 H161       40.4359   75.2044   39.6456 H         1 1N1         0.0516
     45 H162       38.8356   75.8792   39.1870 H         1 1N1         0.0516
     46 H191       38.8701   77.4837   37.0479 H         1 1N1         0.0516
     47 H192       40.4977   77.9788   36.4715 H         1 1N1         0.0516
     48 H201       40.2576   73.6141   35.1561 H         1 1N1         0.0481
     49 H202       38.8856   72.8102   35.9915 H         1 1N1         0.0481
     50 H211       39.0101   73.9996   33.3503 H         1 1N1         0.0296
     51 H212       37.7245   72.9962   34.1032 H         1 1N1         0.0296
     52 HN         43.6592   80.4849   37.2699 H         1 1N1         0.4581
     53 HN2        48.2185   84.3520   40.2962 H         1 1N1         0.3194
     54 H6         49.7480   85.6530   44.9790 H         1 1N1         0.1501
     55 H171       38.8860   73.7198   38.2371 H         1 1N1         0.0407
     56 H172       40.5905   73.8981   37.6989 H         1 1N1         0.0407
     57 H181       40.9486   75.6672   35.7059 H         1 1N1         0.0407
     58 H182       39.4447   76.2964   34.9517 H         1 1N1         0.0407
     59 HO1        36.8323   75.2264   33.4096 H         1 1N1         0.4026
@<TRIPOS>BOND
     1    1    2 ar
     2    1   20 ar
     3    1   34 1
     4    2    3 1
     5    2   21 ar
     6    3   22 am
     7    3   27 2
     8    4   16 1
     9    4   31 1
    10    4   32 1
    11    5    6 ar
    12    5   25 ar
    13    5   35 1
    14    6    7 ar
    15    6   36 1
    16    7    8 1
    17    7   23 ar
    18    8   37 1
    19    8   38 1
    20    8   39 1
    21    9   10 ar
    22    9   18 1
    23    9   29 ar
    24   10   11 ar
    25   10   40 1
    26   11   28 ar
    27   11   30 1
    28   12   13 1
    29   12   28 ar
    30   12   29 ar
    31   13   41 1
    32   13   42 1
    33   13   43 1
    34   14   30 1
    35   14   31 1
    36   14   44 1
    37   14   45 1
    38   15   30 1
    39   15   32 1
    40   15   46 1
    41   15   47 1
    42   16   17 1
    43   16   48 1
    44   16   49 1
    45   17   33 1
    46   17   50 1
    47   17   51 1
    48   18   19 1
    49   18   52 1
    50   19   20 ar
    51   19   21 ar
    52   22   23 1
    53   22   53 1
    54   23   24 ar
    55   24   25 ar
    56   24   26 1
    57   25   54 1
    58   31   55 1
    59   31   56 1
    60   32   57 1
    61   32   58 1
    62   33   59 1
@<TRIPOS>SUBSTRUCTURE
     1 1N1         1 GROUP   0 A     ****
@<TRIPOS>MOLECULE
~{N}-(2-chloro-6-methyl-phenyl)-2-[[4-[4-(2-hydroxyethyl)piperazin-1-yl]-2-methyl-1~{H}-pyrimidin-6-ylium-6-yl]amino]thiazole-5-carboxamide
   60    63     1     0     0
SMALL
USER_CHARGES

@<TRIPOS>ATOM
      1 C1         46.6110   82.6200   38.8410 C.ar      1 1N1         0.3850
      2 C2         46.7750   82.0670   40.0440 C.ar      1 1N1        -0.2774
      3 C3         47.6870   82.4940   41.1480 C.2       1 1N1         0.7058
      4 N6         39.1540   74.8480   36.4620 N.3       1 1N1        -0.7401
      5 C7         51.3280   84.7110   43.8460 C.ar      1 1N1        -0.1057
      6 C8         51.6490   83.9220   42.7330 C.ar      1 1N1        -0.1202
      7 C9         50.6600   83.5350   41.8220 C.ar      1 1N1        -0.0361
      8 C10        51.0540   82.7460   40.6060 C.3       1 1N1        -0.0633
      9 C11        43.3450   79.0450   38.8240 C.cat     1 1N1         0.4425
     10 C12        42.2600   78.4660   38.1410 C.ar      1 1N1        -0.3372
     11 C13        41.6410   77.3640   38.7640 C.ar      1 1N1         0.4738
     12 C14        43.1380   77.5250   40.5610 C.ar      1 1N1         0.6942
     13 C15        43.6000   77.0970   41.9190 C.3       1 1N1        -0.1560
     14 C16        39.8200   75.5660   38.8090 C.3       1 1N1         0.1989
     15 C19        39.9050   77.1490   36.8840 C.3       1 1N1         0.1989
     16 C20        39.2210   73.7370   35.5030 C.3       1 1N1         0.1651
     17 C21        38.3550   73.8890   34.2270 C.3       1 1N1         0.1323
     18 N          43.9770   80.1180   38.2570 N.pl3     1 1N1        -0.6934
     19 C          45.0120   80.8680   38.7420 C.ar      1 1N1         0.4921
     20 N1         45.5400   81.9390   38.1020 N.ar      1 1N1        -0.7008
     21 S          45.8120   80.6770   40.2960 S.3       1 1N1         0.1830
     22 N2         48.3930   83.6260   41.1040 N.am      1 1N1        -0.4494
     23 C4         49.3330   83.9150   42.0370 C.ar      1 1N1         0.0256
     24 C5         49.0210   84.6530   43.2010 C.ar      1 1N1         0.0050
     25 C6         50.0050   85.0710   44.1070 C.ar      1 1N1        -0.1155
     26 CL         47.3940   85.0560   43.5890 Cl        1 1N1        -0.1019
     27 O          47.7260   81.7050   42.0920 O.2       1 1N1        -0.5728
     28 N3         42.0970   76.9050   39.9750 N.ar      1 1N1        -0.6344
     29 N4         43.7640   78.5580   40.0120 N.pl3     1 1N1        -0.6732
     30 N5         40.4900   76.7170   38.1650 N.pl3     1 1N1        -0.6265
     31 C17        39.6220   74.4100   37.7990 C.3       1 1N1         0.1513
     32 C18        39.9110   75.9790   35.8960 C.3       1 1N1         0.1513
     33 O1         37.4960   75.0150   34.2610 O.3       1 1N1        -0.6008
     34 H1         47.1860   83.4530   38.4630 H         1 1N1         0.0645
     35 H7         52.1130   85.0440   44.5090 H         1 1N1         0.1506
     36 H8         52.6710   83.6090   42.5770 H         1 1N1         0.1481
     37 H101       50.1593   82.5287   40.0042 H         1 1N1         0.0555
     38 H102       51.5242   81.8018   40.9181 H         1 1N1         0.0555
     39 H103       51.7671   83.3298   40.0053 H         1 1N1         0.0555
     40 H12        41.9190   78.8460   37.1890 H         1 1N1         0.1877
     41 H151       44.4548   77.7167   42.2276 H         1 1N1         0.0967
     42 H152       43.9056   76.0408   41.8863 H         1 1N1         0.0967
     43 H153       42.7791   77.2190   42.6409 H         1 1N1         0.0967
     44 H161       40.4359   75.2044   39.6456 H         1 1N1         0.0769
     45 H162       38.8356   75.8792   39.1870 H         1 1N1         0.0769
     46 H191       38.8701   77.4837   37.0479 H         1 1N1         0.0769
     47 H192       40.4977   77.9788   36.4715 H         1 1N1         0.0769
     48 H201       40.2576   73.6141   35.1561 H         1 1N1         0.0576
     49 H202       38.8856   72.8102   35.9915 H         1 1N1         0.0576
     50 H211       39.0101   73.9996   33.3503 H         1 1N1         0.0307
     51 H212       37.7245   72.9962   34.1032 H         1 1N1         0.0307
     52 HN         43.6592   80.4849   37.2699 H         1 1N1         0.4817
     53 HN2        48.2185   84.3520   40.2962 H         1 1N1         0.3194
     54 H6         49.7480   85.6530   44.9790 H         1 1N1         0.1576
     55 H171       38.8860   73.7198   38.2371 H         1 1N1         0.0567
     56 H172       40.5905   73.8981   37.6989 H         1 1N1         0.0567
     57 H181       40.9486   75.6672   35.7059 H         1 1N1         0.0567
     58 H182       39.4447   76.2964   34.9517 H         1 1N1         0.0567
     59 HO1        36.8323   75.2264   33.4096 H         1 1N1         0.4133
     60 H60        44.6229   79.0177   40.5228 H         1 1N1         0.5091
@<TRIPOS>BOND
     1    1    2 ar
     2    1   20 ar
     3    1   34 1
     4    2    3 1
     5    2   21 ar
     6    3   22 am
     7    3   27 2
     8    4   16 1
     9    4   31 1
    10    4   32 1
    11    5    6 ar
    12    5   25 ar
    13    5   35 1
    14    6    7 ar
    15    6   36 1
    16    7    8 1
    17    7   23 ar
    18    8   37 1
    19    8   38 1
    20    8   39 1
    21    9   10 ar
    22    9   18 1
    23    9   29 ar
    24   10   11 ar
    25   10   40 1
    26   11   28 ar
    27   11   30 1
    28   12   13 1
    29   12   28 ar
    30   12   29 ar
    31   13   41 1
    32   13   42 1
    33   13   43 1
    34   14   30 1
    35   14   31 1
    36   14   44 1
    37   14   45 1
    38   15   30 1
    39   15   32 1
    40   15   46 1
    41   15   47 1
    42   16   17 1
    43   16   48 1
    44   16   49 1
    45   17   33 1
    46   17   50 1
    47   17   51 1
    48   18   19 1
    49   18   52 1
    50   19   20 ar
    51   19   21 ar
    52   22   23 1
    53   22   53 1
    54   23   24 ar
    55   24   25 ar
    56   24   26 1
    57   25   54 1
    58   29   60 1
    59   31   55 1
    60   31   56 1
    61   32   57 1
    62   32   58 1
    63   33   59 1
@<TRIPOS>SUBSTRUCTURE
     1 1N1         1 GROUP   0 A     ****
@<TRIPOS>MOLECULE
~{N}-(2-chloro-6-methyl-phenyl)-2-[[4-[4-(2-hydroxyethyl)piperazin-4-ium-1-yl]-2-methyl-1~{H}-pyrimidin-6-ylium-6-yl]amino]thiazole-5-carboxamide
   61    64     1     0     0
SMALL
USER_CHARGES

@<TRIPOS>ATOM
      1 C1         46.6110   82.6200   38.8410 C.ar      1 1N1         0.3892
      2 C2         46.7750   82.0670   40.0440 C.ar      1 1N1        -0.2612
      3 C3         47.6870   82.4940   41.1480 C.2       1 1N1         0.6998
      4 N6         39.1540   74.8480   36.4620 N.4       1 1N1        -0.6787
      5 C7         51.3280   84.7110   43.8460 C.ar      1 1N1        -0.0986
      6 C8         51.6490   83.9220   42.7330 C.ar      1 1N1        -0.1154
      7 C9         50.6600   83.5350   41.8220 C.ar      1 1N1        -0.0731
      8 C10        51.0540   82.7460   40.6060 C.3       1 1N1        -0.0565
      9 C11        43.3450   79.0450   38.8240 C.cat     1 1N1         0.4517
     10 C12        42.2600   78.4660   38.1410 C.ar      1 1N1        -0.3086
     11 C13        41.6410   77.3640   38.7640 C.ar      1 1N1         0.4535
     12 C14        43.1380   77.5250   40.5610 C.ar      1 1N1         0.7085
     13 C15        43.6000   77.0970   41.9190 C.3       1 1N1        -0.1610
     14 C16        39.8200   75.5660   38.8090 C.3       1 1N1         0.1945
     15 C19        39.9050   77.1490   36.8840 C.3       1 1N1         0.1945
     16 C20        39.2210   73.7370   35.5030 C.3       1 1N1         0.0858
     17 C21        38.3550   73.8890   34.2270 C.3       1 1N1         0.1231
     18 N          43.9770   80.1180   38.2570 N.pl3     1 1N1        -0.6618
     19 C          45.0120   80.8680   38.7420 C.ar      1 1N1         0.4618
     20 N1         45.5400   81.9390   38.1020 N.ar      1 1N1        -0.7103
     21 S          45.8120   80.6770   40.2960 S.3       1 1N1         0.2030
     22 N2         48.3930   83.6260   41.1040 N.am      1 1N1        -0.4558
     23 C4         49.3330   83.9150   42.0370 C.ar      1 1N1         0.0193
     24 C5         49.0210   84.6530   43.2010 C.ar      1 1N1         0.0366
     25 C6         50.0050   85.0710   44.1070 C.ar      1 1N1        -0.1126
     26 CL         47.3940   85.0560   43.5890 Cl        1 1N1        -0.0843
     27 O          47.7260   81.7050   42.0920 O.2       1 1N1        -0.5267
     28 N3         42.0970   76.9050   39.9750 N.ar      1 1N1        -0.6428
     29 N4         43.7640   78.5580   40.0120 N.pl3     1 1N1        -0.6536
     30 N5         40.4900   76.7170   38.1650 N.pl3     1 1N1        -0.6994
     31 C17        39.6220   74.4100   37.7990 C.3       1 1N1         0.0810
     32 C18        39.9110   75.9790   35.8960 C.3       1 1N1         0.0810
     33 O1         37.4960   75.0150   34.2610 O.3       1 1N1        -0.5769
     34 H1         47.1860   83.4530   38.4630 H         1 1N1         0.0758
     35 H7         52.1130   85.0440   44.5090 H         1 1N1         0.1561
     36 H8         52.6710   83.6090   42.5770 H         1 1N1         0.1503
     37 H101       50.1593   82.5287   40.0042 H         1 1N1         0.0475
     38 H102       51.5242   81.8018   40.9181 H         1 1N1         0.0475
     39 H103       51.7671   83.3298   40.0053 H         1 1N1         0.0475
     40 H12        41.9190   78.8460   37.1890 H         1 1N1         0.1911
     41 H151       44.4548   77.7167   42.2276 H         1 1N1         0.1067
     42 H152       43.9056   76.0408   41.8863 H         1 1N1         0.1067
     43 H153       42.7791   77.2190   42.6409 H         1 1N1         0.1067
     44 H161       40.4359   75.2044   39.6456 H         1 1N1         0.1007
     45 H162       38.8356   75.8792   39.1870 H         1 1N1         0.1007
     46 H191       38.8701   77.4837   37.0479 H         1 1N1         0.1007
     47 H192       40.4977   77.9788   36.4715 H         1 1N1         0.1007
     48 H201       40.2576   73.6141   35.1561 H         1 1N1         0.1258
     49 H202       38.8856   72.8102   35.9915 H         1 1N1         0.1258
     50 H211       39.0101   73.9996   33.3503 H         1 1N1         0.0478
     51 H212       37.7245   72.9962   34.1032 H         1 1N1         0.0478
     52 HN         43.6592   80.4849   37.2699 H         1 1N1         0.4970
     53 HN2        48.2185   84.3520   40.2962 H         1 1N1         0.3221
     54 H6         49.7480   85.6530   44.9790 H         1 1N1         0.1633
     55 H171       38.8860   73.7198   38.2371 H         1 1N1         0.1219
     56 H172       40.5905   73.8981   37.6989 H         1 1N1         0.1219
     57 H181       40.9486   75.6672   35.7059 H         1 1N1         0.1219
     58 H182       39.4447   76.2964   34.9517 H         1 1N1         0.1219
     59 HO1        36.8323   75.2264   33.4096 H         1 1N1         0.4508
     60 H60        44.6229   79.0177   40.5228 H         1 1N1         0.5359
     61 H61        38.1173   75.1834   36.6129 H         1 1N1         0.4509
@<TRIPOS>BOND
     1    1    2 ar
     2    1   20 ar
     3    1   34 1
     4    2    3 1
     5    2   21 ar
     6    3   22 am
     7    3   27 2
     8    4   16 1
     9    4   31 1
    10    4   32 1
    11    4   61 1
    12    5    6 ar
    13    5   25 ar
    14    5   35 1
    15    6    7 ar
    16    6   36 1
    17    7    8 1
    18    7   23 ar
    19    8   37 1
    20    8   38 1
    21    8   39 1
    22    9   10 ar
    23    9   18 1
    24    9   29 ar
    25   10   11 ar
    26   10   40 1
    27   11   28 ar
    28   11   30 1
    29   12   13 1
    30   12   28 ar
    31   12   29 ar
    32   13   41 1
    33   13   42 1
    34   13   43 1
    35   14   30 1
    36   14   31 1
    37   14   44 1
    38   14   45 1
    39   15   30 1
    40   15   32 1
    41   15   46 1
    42   15   47 1
    43   16   17 1
    44   16   48 1
    45   16   49 1
    46   17   33 1
    47   17   50 1
    48   17   51 1
    49   18   19 1
    50   18   52 1
    51   19   20 ar
    52   19   21 ar
    53   22   23 1
    54   22   53 1
    55   23   24 ar
    56   24   25 ar
    57   24   26 1
    58   25   54 1
    59   29   60 1
    60   31   55 1
    61   31   56 1
    62   32   57 1
    63   32   58 1
    64   33   59 1
@<TRIPOS>SUBSTRUCTURE
     1 1N1         1 GROUP   0 A     ****
@<TRIPOS>MOLECULE
~{N}-(2-chloro-6-methyl-phenyl)-2-[[4-[4-(2-hydroxyethyl)piperazin-1-yl]-2-methyl-1~{H}-pyrimidin-6-ylium-6-yl]amino]thiazole-5-carboximidate
   59    62     1     0     0
SMALL
USER_CHARGES

@<TRIPOS>ATOM
      1 C1         46.6110   82.6200   38.8410 C.ar      1 1N1         0.3319
      2 C2         46.7750   82.0670   40.0440 C.ar      1 1N1        -0.1561
      3 C3         47.6870   82.4940   41.1480 C.2       1 1N1         0.9646
      4 N6         39.1540   74.8480   36.4620 N.3       1 1N1        -0.7256
      5 C7         51.3280   84.7110   43.8460 C.ar      1 1N1        -0.1725
      6 C8         51.6490   83.9220   42.7330 C.ar      1 1N1        -0.1209
      7 C9         50.6600   83.5350   41.8220 C.ar      1 1N1        -0.1143
      8 C10        51.0540   82.7460   40.6060 C.3       1 1N1        -0.0334
      9 C11        43.3450   79.0450   38.8240 C.cat     1 1N1         0.4361
     10 C12        42.2600   78.4660   38.1410 C.ar      1 1N1        -0.3349
     11 C13        41.6410   77.3640   38.7640 C.ar      1 1N1         0.4561
     12 C14        43.1380   77.5250   40.5610 C.ar      1 1N1         0.6844
     13 C15        43.6000   77.0970   41.9190 C.3       1 1N1        -0.1525
     14 C16        39.8200   75.5660   38.8090 C.3       1 1N1         0.2063
     15 C19        39.9050   77.1490   36.8840 C.3       1 1N1         0.2063
     16 C20        39.2210   73.7370   35.5030 C.3       1 1N1         0.1621
     17 C21        38.3550   73.8890   34.2270 C.3       1 1N1         0.1301
     18 N          43.9770   80.1180   38.2570 N.pl3     1 1N1        -0.6485
     19 C          45.0120   80.8680   38.7420 C.ar      1 1N1         0.4064
     20 N1         45.5400   81.9390   38.1020 N.ar      1 1N1        -0.6994
     21 S          45.8120   80.6770   40.2960 S.3       1 1N1         0.0576
     22 N2         48.3930   83.6260   41.1040 N.2       1 1N1        -0.8502
     23 C4         49.3330   83.9150   42.0370 C.ar      1 1N1         0.2743
     24 C5         49.0210   84.6530   43.2010 C.ar      1 1N1        -0.0121
     25 C6         50.0050   85.0710   44.1070 C.ar      1 1N1        -0.1190
     26 CL         47.3940   85.0560   43.5890 Cl        1 1N1        -0.1312
     27 O          47.7260   81.7050   42.0920 O.3       1 1N1        -0.7951
     28 N3         42.0970   76.9050   39.9750 N.ar      1 1N1        -0.6466
     29 N4         43.7640   78.5580   40.0120 N.pl3     1 1N1        -0.6581
     30 N5         40.4900   76.7170   38.1650 N.pl3     1 1N1        -0.6504
     31 C17        39.6220   74.4100   37.7990 C.3       1 1N1         0.1427
     32 C18        39.9110   75.9790   35.8960 C.3       1 1N1         0.1427
     33 O1         37.4960   75.0150   34.2610 O.3       1 1N1        -0.6015
     34 H1         47.1860   83.4530   38.4630 H         1 1N1         0.0679
     35 H7         52.1130   85.0440   44.5090 H         1 1N1         0.1176
     36 H8         52.6710   83.6090   42.5770 H         1 1N1         0.1135
     37 H101       50.1593   82.5287   40.0042 H         1 1N1         0.0320
     38 H102       51.5242   81.8018   40.9181 H         1 1N1         0.0320
     39 H103       51.7671   83.3298   40.0053 H         1 1N1         0.0320
     40 H12        41.9190   78.8460   37.1890 H         1 1N1         0.1816
     41 H151       44.4548   77.7167   42.2276 H         1 1N1         0.0909
     42 H152       43.9056   76.0408   41.8863 H         1 1N1         0.0909
     43 H153       42.7791   77.2190   42.6409 H         1 1N1         0.0909
     44 H161       40.4359   75.2044   39.6456 H         1 1N1         0.0703
     45 H162       38.8356   75.8792   39.1870 H         1 1N1         0.0703
     46 H191       38.8701   77.4837   37.0479 H         1 1N1         0.0703
     47 H192       40.4977   77.9788   36.4715 H         1 1N1         0.0703
     48 H201       40.2576   73.6141   35.1561 H         1 1N1         0.0533
     49 H202       38.8856   72.8102   35.9915 H         1 1N1         0.0533
     50 H211       39.0101   73.9996   33.3503 H         1 1N1         0.0306
     51 H212       37.7245   72.9962   34.1032 H         1 1N1         0.0306
     52 HN         43.6592   80.4849   37.2699 H         1 1N1         0.4692
     53 H6         49.7480   85.6530   44.9790 H         1 1N1         0.1265
     54 H171       38.8860   73.7198   38.2371 H         1 1N1         0.0501
     55 H172       40.5905   73.8981   37.6989 H         1 1N1         0.0501
     56 H181       40.9486   75.6672   35.7059 H         1 1N1         0.0501
     57 H182       39.4447   76.2964   34.9517 H         1 1N1         0.0501
     58 HO1        36.8323   75.2264   33.4096 H         1 1N1         0.4083
     59 H59        44.6229   79.0177   40.5228 H         1 1N1         0.5181
@<TRIPOS>BOND
     1    1    2 ar
     2    1   20 ar
     3    1   34 1
     4    2    3 1
     5    2   21 ar
     6    3   22 2
     7    3   27 1
     8    4   16 1
     9    4   31 1
    10    4   32 1
    11    5    6 ar
    12    5   25 ar
    13    5   35 1
    14    6    7 ar
    15    6   36 1
    16    7    8 1
    17    7   23 ar
    18    8   37 1
    19    8   38 1
    20    8   39 1
    21    9   10 ar
    22    9   18 1
    23    9   29 ar
    24   10   11 ar
    25   10   40 1
    26   11   28 ar
    27   11   30 1
    28   12   13 1
    29   12   28 ar
    30   12   29 ar
    31   13   41 1
    32   13   42 1
    33   13   43 1
    34   14   30 1
    35   14   31 1
    36   14   44 1
    37   14   45 1
    38   15   30 1
    39   15   32 1
    40   15   46 1
    41   15   47 1
    42   16   17 1
    43   16   48 1
    44   16   49 1
    45   17   33 1
    46   17   50 1
    47   17   51 1
    48   18   19 1
    49   18   52 1
    50   19   20 ar
    51   19   21 ar
    52   22   23 1
    53   23   24 ar
    54   24   25 ar
    55   24   26 1
    56   25   53 1
    57   29   59 1
    58   31   54 1
    59   31   55 1
    60   32   56 1
    61   32   57 1
    62   33   58 1
@<TRIPOS>SUBSTRUCTURE
     1 1N1         1 GROUP   0 A     ****
@<TRIPOS>MOLECULE
~{N}-(2-chloro-6-methyl-phenyl)-2-[[6-[4-(2-hydroxyethyl)piperazin-1-yl]-2-methyl-pyrimidin-4-yl]amino]thiazole-5-carboximidate
   58    61     1     0     0
SMALL
USER_CHARGES

@<TRIPOS>ATOM
      1 C1         46.6110   82.6200   38.8410 C.ar      1 1N1         0.3228
      2 C2         46.7750   82.0670   40.0440 C.ar      1 1N1        -0.1608
      3 C3         47.6870   82.4940   41.1480 C.2       1 1N1         0.9758
      4 N6         39.1540   74.8480   36.4620 N.3       1 1N1        -0.7494
      5 C7         51.3280   84.7110   43.8460 C.ar      1 1N1        -0.1929
      6 C8         51.6490   83.9220   42.7330 C.ar      1 1N1        -0.1227
      7 C9         50.6600   83.5350   41.8220 C.ar      1 1N1        -0.1232
      8 C10        51.0540   82.7460   40.6060 C.3       1 1N1        -0.0341
      9 C11        43.3450   79.0450   38.8240 C.ar      1 1N1         0.7038
     10 C12        42.2600   78.4660   38.1410 C.ar      1 1N1        -0.4566
     11 C13        41.6410   77.3640   38.7640 C.ar      1 1N1         0.6699
     12 C14        43.1380   77.5250   40.5610 C.ar      1 1N1         0.6880
     13 C15        43.6000   77.0970   41.9190 C.3       1 1N1        -0.1324
     14 C16        39.8200   75.5660   38.8090 C.3       1 1N1         0.1942
     15 C19        39.9050   77.1490   36.8840 C.3       1 1N1         0.1942
     16 C20        39.2210   73.7370   35.5030 C.3       1 1N1         0.1754
     17 C21        38.3550   73.8890   34.2270 C.3       1 1N1         0.1268
     18 N          43.9770   80.1180   38.2570 N.pl3     1 1N1        -0.8038
     19 C          45.0120   80.8680   38.7420 C.ar      1 1N1         0.5662
     20 N1         45.5400   81.9390   38.1020 N.ar      1 1N1        -0.6288
     21 S          45.8120   80.6770   40.2960 S.3       1 1N1        -0.1619
     22 N2         48.3930   83.6260   41.1040 N.2       1 1N1        -0.8638
     23 C4         49.3330   83.9150   42.0370 C.ar      1 1N1         0.3020
     24 C5         49.0210   84.6530   43.2010 C.ar      1 1N1        -0.0220
     25 C6         50.0050   85.0710   44.1070 C.ar      1 1N1        -0.1231
     26 CL         47.3940   85.0560   43.5890 Cl        1 1N1        -0.1355
     27 O          47.7260   81.7050   42.0920 O.3       1 1N1        -0.8237
     28 N3         42.0970   76.9050   39.9750 N.ar      1 1N1        -0.7849
     29 N4         43.7640   78.5580   40.0120 N.ar      1 1N1        -0.7041
     30 N5         40.4900   76.7170   38.1650 N.pl3     1 1N1        -0.7577
     31 C17        39.6220   74.4100   37.7990 C.3       1 1N1         0.1709
     32 C18        39.9110   75.9790   35.8960 C.3       1 1N1         0.1709
     33 O1         37.4960   75.0150   34.2610 O.3       1 1N1        -0.6071
     34 H1         47.1860   83.4530   38.4630 H         1 1N1         0.0503
     35 H7         52.1130   85.0440   44.5090 H         1 1N1         0.1048
     36 H8         52.6710   83.6090   42.5770 H         1 1N1         0.1033
     37 H101       50.1593   82.5287   40.0042 H         1 1N1         0.0328
     38 H102       51.5242   81.8018   40.9181 H         1 1N1         0.0328
     39 H103       51.7671   83.3298   40.0053 H         1 1N1         0.0328
     40 H12        41.9190   78.8460   37.1890 H         1 1N1         0.1487
     41 H151       44.4548   77.7167   42.2276 H         1 1N1         0.0589
     42 H152       43.9056   76.0408   41.8863 H         1 1N1         0.0589
     43 H153       42.7791   77.2190   42.6409 H         1 1N1         0.0589
     44 H161       40.4359   75.2044   39.6456 H         1 1N1         0.0505
     45 H162       38.8356   75.8792   39.1870 H         1 1N1         0.0505
     46 H191       38.8701   77.4837   37.0479 H         1 1N1         0.0505
     47 H192       40.4977   77.9788   36.4715 H         1 1N1         0.0505
     48 H201       40.2576   73.6141   35.1561 H         1 1N1         0.0448
     49 H202       38.8856   72.8102   35.9915 H         1 1N1         0.0448
     50 H211       39.0101   73.9996   33.3503 H         1 1N1         0.0284
     51 H212       37.7245   72.9962   34.1032 H         1 1N1         0.0284
     52 HN         43.6592   80.4849   37.2699 H         1 1N1         0.4353
     53 H6         49.7480   85.6530   44.9790 H         1 1N1         0.1153
     54 H171       38.8860   73.7198   38.2371 H         1 1N1         0.0368
     55 H172       40.5905   73.8981   37.6989 H         1 1N1         0.0368
     56 H181       40.9486   75.6672   35.7059 H         1 1N1         0.0368
     57 H182       39.4447   76.2964   34.9517 H         1 1N1         0.0368
     58 HO1        36.8323   75.2264   33.4096 H         1 1N1         0.3989
@<TRIPOS>BOND
     1    1    2 ar
     2    1   20 ar
     3    1   34 1
     4    2    3 1
     5    2   21 ar
     6    3   22 2
     7    3   27 1
     8    4   16 1
     9    4   31 1
    10    4   32 1
    11    5    6 ar
    12    5   25 ar
    13    5   35 1
    14    6    7 ar
    15    6   36 1
    16    7    8 1
    17    7   23 ar
    18    8   37 1
    19    8   38 1
    20    8   39 1
    21    9   10 ar
    22    9   18 1
    23    9   29 ar
    24   10   11 ar
    25   10   40 1
    26   11   28 ar
    27   11   30 1
    28   12   13 1
    29   12   28 ar
    30   12   29 ar
    31   13   41 1
    32   13   42 1
    33   13   43 1
    34   14   30 1
    35   14   31 1
    36   14   44 1
    37   14   45 1
    38   15   30 1
    39   15   32 1
    40   15   46 1
    41   15   47 1
    42   16   17 1
    43   16   48 1
    44   16   49 1
    45   17   33 1
    46   17   50 1
    47   17   51 1
    48   18   19 1
    49   18   52 1
    50   19   20 ar
    51   19   21 ar
    52   22   23 1
    53   23   24 ar
    54   24   25 ar
    55   24   26 1
    56   25   53 1
    57   31   54 1
    58   31   55 1
    59   32   56 1
    60   32   57 1
    61   33   58 1
@<TRIPOS>SUBSTRUCTURE
     1 1N1         1 GROUP   0 A     ****
@<TRIPOS>MOLECULE
~{N}-(2-chloro-6-methyl-phenyl)-2-[[6-[4-(2-hydroxyethyl)piperazin-4-ium-1-yl]-2-methyl-pyrimidin-4-yl]amino]thiazole-5-carboximidate
   59    62     1     0     0
SMALL
USER_CHARGES

@<TRIPOS>ATOM
      1 C1         46.6110   82.6200   38.8410 C.ar      1 1N1         0.3122
      2 C2         46.7750   82.0670   40.0440 C.ar      1 1N1        -0.1473
      3 C3         47.6870   82.4940   41.1480 C.2       1 1N1         0.9714
      4 N6         39.1540   74.8480   36.4620 N.4       1 1N1        -0.6855
      5 C7         51.3280   84.7110   43.8460 C.ar      1 1N1        -0.1846
      6 C8         51.6490   83.9220   42.7330 C.ar      1 1N1        -0.1206
      7 C9         50.6600   83.5350   41.8220 C.ar      1 1N1        -0.1245
      8 C10        51.0540   82.7460   40.6060 C.3       1 1N1        -0.0270
      9 C11        43.3450   79.0450   38.8240 C.ar      1 1N1         0.7028
     10 C12        42.2600   78.4660   38.1410 C.ar      1 1N1        -0.4212
     11 C13        41.6410   77.3640   38.7640 C.ar      1 1N1         0.6174
     12 C14        43.1380   77.5250   40.5610 C.ar      1 1N1         0.6980
     13 C15        43.6000   77.0970   41.9190 C.3       1 1N1        -0.1383
     14 C16        39.8200   75.5660   38.8090 C.3       1 1N1         0.1654
     15 C19        39.9050   77.1490   36.8840 C.3       1 1N1         0.1654
     16 C20        39.2210   73.7370   35.5030 C.3       1 1N1         0.0933
     17 C21        38.3550   73.8890   34.2270 C.3       1 1N1         0.1175
     18 N          43.9770   80.1180   38.2570 N.pl3     1 1N1        -0.7611
     19 C          45.0120   80.8680   38.7420 C.ar      1 1N1         0.4974
     20 N1         45.5400   81.9390   38.1020 N.ar      1 1N1        -0.6222
     21 S          45.8120   80.6770   40.2960 S.3       1 1N1        -0.1007
     22 N2         48.3930   83.6260   41.1040 N.2       1 1N1        -0.8657
     23 C4         49.3330   83.9150   42.0370 C.ar      1 1N1         0.2945
     24 C5         49.0210   84.6530   43.2010 C.ar      1 1N1        -0.0199
     25 C6         50.0050   85.0710   44.1070 C.ar      1 1N1        -0.1199
     26 CL         47.3940   85.0560   43.5890 Cl        1 1N1        -0.1339
     27 O          47.7260   81.7050   42.0920 O.3       1 1N1        -0.8030
     28 N3         42.0970   76.9050   39.9750 N.ar      1 1N1        -0.7878
     29 N4         43.7640   78.5580   40.0120 N.ar      1 1N1        -0.6679
     30 N5         40.4900   76.7170   38.1650 N.pl3     1 1N1        -0.7580
     31 C17        39.6220   74.4100   37.7990 C.3       1 1N1         0.1048
     32 C18        39.9110   75.9790   35.8960 C.3       1 1N1         0.1048
     33 O1         37.4960   75.0150   34.2610 O.3       1 1N1        -0.5813
     34 H1         47.1860   83.4530   38.4630 H         1 1N1         0.0553
     35 H7         52.1130   85.0440   44.5090 H         1 1N1         0.1120
     36 H8         52.6710   83.6090   42.5770 H         1 1N1         0.1071
     37 H101       50.1593   82.5287   40.0042 H         1 1N1         0.0290
     38 H102       51.5242   81.8018   40.9181 H         1 1N1         0.0290
     39 H103       51.7671   83.3298   40.0053 H         1 1N1         0.0290
     40 H12        41.9190   78.8460   37.1890 H         1 1N1         0.1532
     41 H151       44.4548   77.7167   42.2276 H         1 1N1         0.0683
     42 H152       43.9056   76.0408   41.8863 H         1 1N1         0.0683
     43 H153       42.7791   77.2190   42.6409 H         1 1N1         0.0683
     44 H161       40.4359   75.2044   39.6456 H         1 1N1         0.0849
     45 H162       38.8356   75.8792   39.1870 H         1 1N1         0.0849
     46 H191       38.8701   77.4837   37.0479 H         1 1N1         0.0849
     47 H192       40.4977   77.9788   36.4715 H         1 1N1         0.0849
     48 H201       40.2576   73.6141   35.1561 H         1 1N1         0.1178
     49 H202       38.8856   72.8102   35.9915 H         1 1N1         0.1178
     50 H211       39.0101   73.9996   33.3503 H         1 1N1         0.0448
     51 H212       37.7245   72.9962   34.1032 H         1 1N1         0.0448
     52 HN         43.6592   80.4849   37.2699 H         1 1N1         0.4199
     53 H6         49.7480   85.6530   44.9790 H         1 1N1         0.1207
     54 H171       38.8860   73.7198   38.2371 H         1 1N1         0.1057
     55 H172       40.5905   73.8981   37.6989 H         1 1N1         0.1057
     56 H181       40.9486   75.6672   35.7059 H         1 1N1         0.1057
     57 H182       39.4447   76.2964   34.9517 H         1 1N1         0.1057
     58 HO1        36.8323   75.2264   33.4096 H         1 1N1         0.4376
     59 H59        38.1173   75.1834   36.6129 H         1 1N1         0.4405
@<TRIPOS>BOND
     1    1    2 ar
     2    1   20 ar
     3    1   34 1
     4    2    3 1
     5    2   21 ar
     6    3   22 2
     7    3   27 1
     8    4   16 1
     9    4   31 1
    10    4   32 1
    11    4   59 1
    12    5    6 ar
    13    5   25 ar
    14    5   35 1
    15    6    7 ar
    16    6   36 1
    17    7    8 1
    18    7   23 ar
    19    8   37 1
    20    8   38 1
    21    8   39 1
    22    9   10 ar
    23    9   18 1
    24    9   29 ar
    25   10   11 ar
    26   10   40 1
    27   11   28 ar
    28   11   30 1
    29   12   13 1
    30   12   28 ar
    31   12   29 ar
    32   13   41 1
    33   13   42 1
    34   13   43 1
    35   14   30 1
    36   14   31 1
    37   14   44 1
    38   14   45 1
    39   15   30 1
    40   15   32 1
    41   15   46 1
    42   15   47 1
    43   16   17 1
    44   16   48 1
    45   16   49 1
    46   17   33 1
    47   17   50 1
    48   17   51 1
    49   18   19 1
    50   18   52 1
    51   19   20 ar
    52   19   21 ar
    53   22   23 1
    54   23   24 ar
    55   24   25 ar
    56   24   26 1
    57   25   53 1
    58   31   54 1
    59   31   55 1
    60   32   56 1
    61   32   57 1
    62   33   58 1
@<TRIPOS>SUBSTRUCTURE
     1 1N1         1 GROUP   0 A     ****
@<TRIPOS>MOLECULE
~{N}-(2-chloro-6-methyl-phenyl)-2-[[4-[4-(2-hydroxyethyl)piperazin-4-ium-1-yl]-2-methyl-1~{H}-pyrimidin-6-ylium-6-yl]amino]thiazole-5-carboximidate
   60    63     1     0     0
SMALL
USER_CHARGES

@<TRIPOS>ATOM
      1 C1         46.6110   82.6200   38.8410 C.ar      1 1N1         0.3552
      2 C2         46.7750   82.0670   40.0440 C.ar      1 1N1        -0.1624
      3 C3         47.6870   82.4940   41.1480 C.2       1 1N1         0.9518
      4 N6         39.1540   74.8480   36.4620 N.4       1 1N1        -0.6800
      5 C7         51.3280   84.7110   43.8460 C.ar      1 1N1        -0.1575
      6 C8         51.6490   83.9220   42.7330 C.ar      1 1N1        -0.1202
      7 C9         50.6600   83.5350   41.8220 C.ar      1 1N1        -0.1015
      8 C10        51.0540   82.7460   40.6060 C.3       1 1N1        -0.0403
      9 C11        43.3450   79.0450   38.8240 C.cat     1 1N1         0.4036
     10 C12        42.2600   78.4660   38.1410 C.ar      1 1N1        -0.3075
     11 C13        41.6410   77.3640   38.7640 C.ar      1 1N1         0.4217
     12 C14        43.1380   77.5250   40.5610 C.ar      1 1N1         0.7051
     13 C15        43.6000   77.0970   41.9190 C.3       1 1N1        -0.1571
     14 C16        39.8200   75.5660   38.8090 C.3       1 1N1         0.2009
     15 C19        39.9050   77.1490   36.8840 C.3       1 1N1         0.2009
     16 C20        39.2210   73.7370   35.5030 C.3       1 1N1         0.0886
     17 C21        38.3550   73.8890   34.2270 C.3       1 1N1         0.1198
     18 N          43.9770   80.1180   38.2570 N.pl3     1 1N1        -0.5811
     19 C          45.0120   80.8680   38.7420 C.ar      1 1N1         0.3202
     20 N1         45.5400   81.9390   38.1020 N.ar      1 1N1        -0.7070
     21 S          45.8120   80.6770   40.2960 S.3       1 1N1         0.1758
     22 N2         48.3930   83.6260   41.1040 N.2       1 1N1        -0.7988
     23 C4         49.3330   83.9150   42.0370 C.ar      1 1N1         0.2446
     24 C5         49.0210   84.6530   43.2010 C.ar      1 1N1        -0.0024
     25 C6         50.0050   85.0710   44.1070 C.ar      1 1N1        -0.1195
     26 CL         47.3940   85.0560   43.5890 Cl        1 1N1        -0.1283
     27 O          47.7260   81.7050   42.0920 O.3       1 1N1        -0.8302
     28 N3         42.0970   76.9050   39.9750 N.ar      1 1N1        -0.6709
     29 N4         43.7640   78.5580   40.0120 N.pl3     1 1N1        -0.6665
     30 N5         40.4900   76.7170   38.1650 N.pl3     1 1N1        -0.6979
     31 C17        39.6220   74.4100   37.7990 C.3       1 1N1         0.0790
     32 C18        39.9110   75.9790   35.8960 C.3       1 1N1         0.0790
     33 O1         37.4960   75.0150   34.2610 O.3       1 1N1        -0.5782
     34 H1         47.1860   83.4530   38.4630 H         1 1N1         0.0848
     35 H7         52.1130   85.0440   44.5090 H         1 1N1         0.1249
     36 H8         52.6710   83.6090   42.5770 H         1 1N1         0.1212
     37 H101       50.1593   82.5287   40.0042 H         1 1N1         0.0368
     38 H102       51.5242   81.8018   40.9181 H         1 1N1         0.0368
     39 H103       51.7671   83.3298   40.0053 H         1 1N1         0.0368
     40 H12        41.9190   78.8460   37.1890 H         1 1N1         0.1773
     41 H151       44.4548   77.7167   42.2276 H         1 1N1         0.0980
     42 H152       43.9056   76.0408   41.8863 H         1 1N1         0.0980
     43 H153       42.7791   77.2190   42.6409 H         1 1N1         0.0980
     44 H161       40.4359   75.2044   39.6456 H         1 1N1         0.0973
     45 H162       38.8356   75.8792   39.1870 H         1 1N1         0.0973
     46 H191       38.8701   77.4837   37.0479 H         1 1N1         0.0973
     47 H192       40.4977   77.9788   36.4715 H         1 1N1         0.0973
     48 H201       40.2576   73.6141   35.1561 H         1 1N1         0.1236
     49 H202       38.8856   72.8102   35.9915 H         1 1N1         0.1236
     50 H211       39.0101   73.9996   33.3503 H         1 1N1         0.0468
     51 H212       37.7245   72.9962   34.1032 H         1 1N1         0.0468
     52 HN         43.6592   80.4849   37.2699 H         1 1N1         0.4857
     53 H6         49.7480   85.6530   44.9790 H         1 1N1         0.1331
     54 H171       38.8860   73.7198   38.2371 H         1 1N1         0.1165
     55 H172       40.5905   73.8981   37.6989 H         1 1N1         0.1165
     56 H181       40.9486   75.6672   35.7059 H         1 1N1         0.1165
     57 H182       39.4447   76.2964   34.9517 H         1 1N1         0.1165
     58 HO1        36.8323   75.2264   33.4096 H         1 1N1         0.4458
     59 H59        44.6229   79.0177   40.5228 H         1 1N1         0.5406
     60 H60        38.1173   75.1834   36.6129 H         1 1N1         0.4479
@<TRIPOS>BOND
     1    1    2 ar
     2    1   20 ar
     3    1   34 1
     4    2    3 1
     5    2   21 ar
     6    3   22 2
     7    3   27 1
     8    4   16 1
     9    4   31 1
    10    4   32 1
    11    4   60 1
    12    5    6 ar
    13    5   25 ar
    14    5   35 1
    15    6    7 ar
    16    6   36 1
    17    7    8 1
    18    7   23 ar
    19    8   37 1
    20    8   38 1
    21    8   39 1
    22    9   10 ar
    23    9   18 1
    24    9   29 ar
    25   10   11 ar
    26   10   40 1
    27   11   28 ar
    28   11   30 1
    29   12   13 1
    30   12   28 ar
    31   12   29 ar
    32   13   41 1
    33   13   42 1
    34   13   43 1
    35   14   30 1
    36   14   31 1
    37   14   44 1
    38   14   45 1
    39   15   30 1
    40   15   32 1
    41   15   46 1
    42   15   47 1
    43   16   17 1
    44   16   48 1
    45   16   49 1
    46   17   33 1
    47   17   50 1
    48   17   51 1
    49   18   19 1
    50   18   52 1
    51   19   20 ar
    52   19   21 ar
    53   22   23 1
    54   23   24 ar
    55   24   25 ar
    56   24   26 1
    57   25   53 1
    58   29   59 1
    59   31   54 1
    60   31   55 1
    61   32   56 1
    62   32   57 1
    63   33   58 1
@<TRIPOS>SUBSTRUCTURE
     1 1N1         1 GROUP   0 A     ****
