@<TRIPOS>MOLECULE
B49
57   59    1
SMALL
USER_CHARGES


@<TRIPOS>ATOM
      1 C4        -12.5570   70.4800  -38.3840 C.3       1 B49         0.0000 
      2 C5        -17.2200   78.9120  -37.0410 C.ar      1 B49         0.0000 
      3 C6        -15.9490   78.6880  -37.6290 C.ar      1 B49         0.0000 
      4 C7        -17.4610   76.4830  -36.5450 C.ar      1 B49         0.0000 
      5 C13       -15.7520   71.3360  -36.5950 C.ar      1 B49         0.0000 
      6 C15       -17.9580   77.8080  -36.5030 C.ar      1 B49         0.0000 
      7 C17       -16.2070   76.2720  -37.1310 C.ar      1 B49         0.0000 
      8 C20       -15.3940   75.0750  -37.3600 C.2       1 B49         0.0000 
      9 C21       -14.1310   75.5470  -38.0500 C.2       1 B49         0.0000 
     10 C22       -14.9040   68.8820  -36.6820 C.2       1 B49         0.0000 
     11 C3        -17.0050   71.1090  -35.8030 C.3       1 B49         0.0000 
     12 C12       -15.8450   73.8610  -36.9720 C.2       1 B49         0.0000 
     13 C14       -13.8060   70.9660  -37.7090 C.ar      1 B49         0.0000 
     14 C16       -15.4740   77.3620  -37.6560 C.ar      1 B49         0.0000 
     15 C18       -15.2880   72.5530  -37.0820 C.ar      1 B49         0.0000 
     16 C19       -14.8080   70.3190  -36.9890 C.ar      1 B49         0.0000 
     17 N23       -14.1260   72.3020  -37.7440 N.pl3     1 B49         0.0000 
     18 N24       -14.2720   76.9180  -38.1800 N.am      1 B49         0.0000 
     19 N25       -15.2650   68.5790  -35.3700 N.am      1 B49         0.0000 
     20 O27       -13.1940   74.8890  -38.4210 O.2       1 B49         0.0000 
     21 O28       -14.6630   68.0270  -37.5350 O.2       1 B49         0.0000 
     22 F29       -19.1470   78.0170  -35.9440 F         1 B49         0.0000 
     23 H4        -12.0357   71.3308  -38.8471 H         1 B49         0.0000 
     24 H4A       -12.8212   69.7458  -39.1593 H         1 B49         0.0000 
     25 H4B       -11.8986   70.0072  -37.6404 H         1 B49         0.0000 
     26 H5        -17.6300   79.9100  -36.9990 H         1 B49         0.0000 
     27 H6        -15.3690   79.5010  -38.0390 H         1 B49         0.0000 
     28 H7        -18.0310   75.6610  -36.1380 H         1 B49         0.0000 
     29 H3        -17.0988   70.0394  -35.5637 H         1 B49         0.0000 
     30 H3A       -17.8755   71.4303  -36.3938 H         1 B49         0.0000 
     31 H3B       -16.9598   71.6908  -34.8705 H         1 B49         0.0000 
     32 H12       -16.8183   73.7714  -36.4674 H         1 B49         0.0000 
     33 HN23      -13.4672   73.0119  -38.2655 H         1 B49         0.0000 
     34 HN24      -13.4762   77.5101  -38.6555 H         1 B49         0.0000 
     35 HN25      -15.3286   67.4994  -35.1688 H         1 B49         0.0000 
     36 C37       -15.5500   69.5440  -34.2990 C.3       1 B49         0.0000 
     37 C38       -15.9380   69.0450  -32.8950 C.3       1 B49         0.0000 
     38 N4        -16.2230   70.0100  -31.8230 N.4       1 B49         0.0000 
     39 C39       -15.1350   70.4930  -30.9610 C.3       1 B49         0.0000 
     40 C40       -17.5960   70.4930  -31.6150 C.3       1 B49         0.0000 
     41 C41       -17.8940   71.5040  -30.4930 C.3       1 B49         0.0000 
     42 C42       -15.4340   71.5040  -29.8380 C.3       1 B49         0.0000 
     43 H14       -14.6620   70.1688  -34.1225 H         1 B49         0.0000 
     44 H15       -16.3946   70.1829  -34.5963 H         1 B49         0.0000 
     45 H16       -16.8562   68.4429  -32.9607 H         1 B49         0.0000 
     46 H17       -15.1236   68.4284  -32.4870 H         1 B49         0.0000 
     47 H18       -14.6767   69.6413  -30.4371 H         1 B49         0.0000 
     48 H19       -14.3752   70.9965  -31.5769 H         1 B49         0.0000 
     49 H20       -17.9499   70.9959  -32.5271 H         1 B49         0.0000 
     50 H21       -18.2538   69.6413  -31.3872 H         1 B49         0.0000 
     51 H22       -18.9672   71.7452  -30.4924 H         1 B49         0.0000 
     52 H23       -17.3119   72.4219  -30.6624 H         1 B49         0.0000 
     53 H24       -17.6158   71.0673  -29.5225 H         1 B49         0.0000 
     54 H25       -14.5028   71.7455  -29.3046 H         1 B49         0.0000 
     55 H26       -16.1571   71.0666  -29.1338 H         1 B49         0.0000 
     56 H27       -15.8556   72.4218  -30.2737 H         1 B49         0.0000 
     57 H57       -16.4076   69.1801  -31.1250 H         1 B49         0.0000 
@<TRIPOS>BOND
     1    1   13 1    
     2    1   23 1    
     3    1   24 1    
     4    1   25 1    
     5    2    3 ar   
     6    2    6 ar   
     7    2   26 1    
     8    3   14 ar   
     9    3   27 1    
    10    4    6 ar   
    11    4    7 ar   
    12    4   28 1    
    13    5   11 1    
    14    5   15 ar   
    15    5   16 ar   
    16    6   22 1    
    17    7    8 1    
    18    7   14 ar   
    19    8    9 1    
    20    8   12 2    
    21    9   18 am   BACKBONE|DICT|INTERRES
    22    9   20 2    
    23   10   16 1    
    24   10   19 am   BACKBONE|DICT|INTERRES
    25   10   21 2    
    26   11   29 1    
    27   11   30 1    
    28   11   31 1    
    29   12   15 1    
    30   12   32 1    
    31   13   16 ar   
    32   13   17 ar   
    33   14   18 1    
    34   15   17 ar   
    35   17   33 1    
    36   18   34 1    
    37   19   35 1    
    38   19   36 1    
    39   36   37 1    
    40   36   43 1    
    41   36   44 1    
    42   37   38 1    
    43   37   45 1    
    44   37   46 1    
    45   38   39 1    
    46   38   40 1    
    47   38   57 1    
    48   39   42 1    
    49   39   47 1    
    50   39   48 1    
    51   40   41 1    
    52   40   49 1    
    53   40   50 1    
    54   41   51 1    
    55   41   52 1    
    56   41   53 1    
    57   42   54 1    
    58   42   55 1    
    59   42   56 1    
@<TRIPOS>SUBSTRUCTURE
     1 B49         1 GROUP             0       ****    0 ROOT    
@<TRIPOS>MOLECULE
B49
56   58    1
SMALL
USER_CHARGES


@<TRIPOS>ATOM
      1 C4        -12.5570   70.4800  -38.3840 C.3       1 B49         0.0000 
      2 C5        -17.2200   78.9120  -37.0410 C.ar      1 B49         0.0000 
      3 C6        -15.9490   78.6880  -37.6290 C.ar      1 B49         0.0000 
      4 C7        -17.4610   76.4830  -36.5450 C.ar      1 B49         0.0000 
      5 C13       -15.7520   71.3360  -36.5950 C.ar      1 B49         0.0000 
      6 C15       -17.9580   77.8080  -36.5030 C.ar      1 B49         0.0000 
      7 C17       -16.2070   76.2720  -37.1310 C.ar      1 B49         0.0000 
      8 C20       -15.3940   75.0750  -37.3600 C.2       1 B49         0.0000 
      9 C21       -14.1310   75.5470  -38.0500 C.2       1 B49         0.0000 
     10 C22       -14.9040   68.8820  -36.6820 C.2       1 B49         0.0000 
     11 C3        -17.0050   71.1090  -35.8030 C.3       1 B49         0.0000 
     12 C12       -15.8450   73.8610  -36.9720 C.2       1 B49         0.0000 
     13 C14       -13.8060   70.9660  -37.7090 C.ar      1 B49         0.0000 
     14 C16       -15.4740   77.3620  -37.6560 C.ar      1 B49         0.0000 
     15 C18       -15.2880   72.5530  -37.0820 C.ar      1 B49         0.0000 
     16 C19       -14.8080   70.3190  -36.9890 C.ar      1 B49         0.0000 
     17 N23       -14.1260   72.3020  -37.7440 N.pl3     1 B49         0.0000 
     18 N24       -14.2720   76.9180  -38.1800 N.am      1 B49         0.0000 
     19 N25       -15.2650   68.5790  -35.3700 N.am      1 B49         0.0000 
     20 O27       -13.1940   74.8890  -38.4210 O.2       1 B49         0.0000 
     21 O28       -14.6630   68.0270  -37.5350 O.2       1 B49         0.0000 
     22 F29       -19.1470   78.0170  -35.9440 F         1 B49         0.0000 
     23 H4        -12.0357   71.3308  -38.8471 H         1 B49         0.0000 
     24 H4A       -12.8212   69.7458  -39.1593 H         1 B49         0.0000 
     25 H4B       -11.8986   70.0072  -37.6404 H         1 B49         0.0000 
     26 H5        -17.6300   79.9100  -36.9990 H         1 B49         0.0000 
     27 H6        -15.3690   79.5010  -38.0390 H         1 B49         0.0000 
     28 H7        -18.0310   75.6610  -36.1380 H         1 B49         0.0000 
     29 H3        -17.0988   70.0394  -35.5637 H         1 B49         0.0000 
     30 H3A       -17.8755   71.4303  -36.3938 H         1 B49         0.0000 
     31 H3B       -16.9598   71.6908  -34.8705 H         1 B49         0.0000 
     32 H12       -16.8183   73.7714  -36.4674 H         1 B49         0.0000 
     33 HN23      -13.4672   73.0119  -38.2655 H         1 B49         0.0000 
     34 HN24      -13.4762   77.5101  -38.6555 H         1 B49         0.0000 
     35 HN25      -15.3286   67.4994  -35.1688 H         1 B49         0.0000 
     36 C37       -15.5500   69.5440  -34.2990 C.3       1 B49         0.0000 
     37 C38       -15.9380   69.0450  -32.8950 C.3       1 B49         0.0000 
     38 N4        -16.2230   70.0100  -31.8230 N.3       1 B49         0.0000 
     39 C39       -15.1350   70.4930  -30.9610 C.3       1 B49         0.0000 
     40 C40       -17.5960   70.4930  -31.6150 C.3       1 B49         0.0000 
     41 C41       -17.8940   71.5040  -30.4930 C.3       1 B49         0.0000 
     42 C42       -15.4340   71.5040  -29.8380 C.3       1 B49         0.0000 
     43 H14       -14.6620   70.1688  -34.1225 H         1 B49         0.0000 
     44 H15       -16.3946   70.1829  -34.5963 H         1 B49         0.0000 
     45 H16       -16.8562   68.4429  -32.9607 H         1 B49         0.0000 
     46 H17       -15.1236   68.4284  -32.4870 H         1 B49         0.0000 
     47 H18       -14.6767   69.6413  -30.4371 H         1 B49         0.0000 
     48 H19       -14.3752   70.9965  -31.5769 H         1 B49         0.0000 
     49 H20       -17.9499   70.9959  -32.5271 H         1 B49         0.0000 
     50 H21       -18.2538   69.6413  -31.3872 H         1 B49         0.0000 
     51 H22       -18.9672   71.7452  -30.4924 H         1 B49         0.0000 
     52 H23       -17.3119   72.4219  -30.6624 H         1 B49         0.0000 
     53 H24       -17.6158   71.0673  -29.5225 H         1 B49         0.0000 
     54 H25       -14.5028   71.7455  -29.3046 H         1 B49         0.0000 
     55 H26       -16.1571   71.0666  -29.1338 H         1 B49         0.0000 
     56 H27       -15.8556   72.4218  -30.2737 H         1 B49         0.0000 
@<TRIPOS>BOND
     1    1   13 1    
     2    1   23 1    
     3    1   24 1    
     4    1   25 1    
     5    2    3 ar   
     6    2    6 ar   
     7    2   26 1    
     8    3   14 ar   
     9    3   27 1    
    10    4    6 ar   
    11    4    7 ar   
    12    4   28 1    
    13    5   11 1    
    14    5   15 ar   
    15    5   16 ar   
    16    6   22 1    
    17    7    8 1    
    18    7   14 ar   
    19    8    9 1    
    20    8   12 2    
    21    9   18 am   BACKBONE|DICT|INTERRES
    22    9   20 2    
    23   10   16 1    
    24   10   19 am   BACKBONE|DICT|INTERRES
    25   10   21 2    
    26   11   29 1    
    27   11   30 1    
    28   11   31 1    
    29   12   15 1    
    30   12   32 1    
    31   13   16 ar   
    32   13   17 ar   
    33   14   18 1    
    34   15   17 ar   
    35   17   33 1    
    36   18   34 1    
    37   19   35 1    
    38   19   36 1    
    39   36   37 1    
    40   36   43 1    
    41   36   44 1    
    42   37   38 1    
    43   37   45 1    
    44   37   46 1    
    45   38   39 1    
    46   38   40 1    
    47   39   42 1    
    48   39   47 1    
    49   39   48 1    
    50   40   41 1    
    51   40   49 1    
    52   40   50 1    
    53   41   51 1    
    54   41   52 1    
    55   41   53 1    
    56   42   54 1    
    57   42   55 1    
    58   42   56 1    
@<TRIPOS>SUBSTRUCTURE
     1 B49         1 GROUP             0       ****    0 ROOT    
@<TRIPOS>MOLECULE
B49
56   58    1
SMALL
USER_CHARGES


@<TRIPOS>ATOM
      1 C4        -12.5570   70.4800  -38.3840 C.3       1 B49         0.0000 
      2 C5        -17.2200   78.9120  -37.0410 C.ar      1 B49         0.0000 
      3 C6        -15.9490   78.6880  -37.6290 C.ar      1 B49         0.0000 
      4 C7        -17.4610   76.4830  -36.5450 C.ar      1 B49         0.0000 
      5 C13       -15.7520   71.3360  -36.5950 C.ar      1 B49         0.0000 
      6 C15       -17.9580   77.8080  -36.5030 C.ar      1 B49         0.0000 
      7 C17       -16.2070   76.2720  -37.1310 C.ar      1 B49         0.0000 
      8 C20       -15.3940   75.0750  -37.3600 C.2       1 B49         0.0000 
      9 C21       -14.1310   75.5470  -38.0500 C.2       1 B49         0.0000 
     10 C22       -14.9040   68.8820  -36.6820 C.2       1 B49         0.0000 
     11 C3        -17.0050   71.1090  -35.8030 C.3       1 B49         0.0000 
     12 C12       -15.8450   73.8610  -36.9720 C.2       1 B49         0.0000 
     13 C14       -13.8060   70.9660  -37.7090 C.ar      1 B49         0.0000 
     14 C16       -15.4740   77.3620  -37.6560 C.ar      1 B49         0.0000 
     15 C18       -15.2880   72.5530  -37.0820 C.ar      1 B49         0.0000 
     16 C19       -14.8080   70.3190  -36.9890 C.ar      1 B49         0.0000 
     17 N23       -14.1260   72.3020  -37.7440 N.pl3     1 B49         0.0000 
     18 N24       -14.2720   76.9180  -38.1800 N.am      1 B49         0.0000 
     19 N25       -15.2650   68.5790  -35.3700 N.2       1 B49         0.0000 
     20 O27       -13.1940   74.8890  -38.4210 O.2       1 B49         0.0000 
     21 O28       -14.6630   68.0270  -37.5350 O.co2     1 B49         0.0000 
     22 F29       -19.1470   78.0170  -35.9440 F         1 B49         0.0000 
     23 H4        -12.0357   71.3308  -38.8471 H         1 B49         0.0000 
     24 H4A       -12.8212   69.7458  -39.1593 H         1 B49         0.0000 
     25 H4B       -11.8986   70.0072  -37.6404 H         1 B49         0.0000 
     26 H5        -17.6300   79.9100  -36.9990 H         1 B49         0.0000 
     27 H6        -15.3690   79.5010  -38.0390 H         1 B49         0.0000 
     28 H7        -18.0310   75.6610  -36.1380 H         1 B49         0.0000 
     29 H3        -17.0988   70.0394  -35.5637 H         1 B49         0.0000 
     30 H3A       -17.8755   71.4303  -36.3938 H         1 B49         0.0000 
     31 H3B       -16.9598   71.6908  -34.8705 H         1 B49         0.0000 
     32 H12       -16.8183   73.7714  -36.4674 H         1 B49         0.0000 
     33 HN23      -13.4672   73.0119  -38.2655 H         1 B49         0.0000 
     34 HN24      -13.4762   77.5101  -38.6555 H         1 B49         0.0000 
     35 C37       -15.5500   69.5440  -34.2990 C.3       1 B49         0.0000 
     36 C38       -15.9380   69.0450  -32.8950 C.3       1 B49         0.0000 
     37 N4        -16.2230   70.0100  -31.8230 N.4       1 B49         0.0000 
     38 C39       -15.1350   70.4930  -30.9610 C.3       1 B49         0.0000 
     39 C40       -17.5960   70.4930  -31.6150 C.3       1 B49         0.0000 
     40 C41       -17.8940   71.5040  -30.4930 C.3       1 B49         0.0000 
     41 C42       -15.4340   71.5040  -29.8380 C.3       1 B49         0.0000 
     42 H14       -14.6620   70.1688  -34.1225 H         1 B49         0.0000 
     43 H15       -16.3946   70.1829  -34.5963 H         1 B49         0.0000 
     44 H16       -16.8562   68.4429  -32.9607 H         1 B49         0.0000 
     45 H17       -15.1236   68.4284  -32.4870 H         1 B49         0.0000 
     46 H18       -14.6767   69.6413  -30.4371 H         1 B49         0.0000 
     47 H19       -14.3752   70.9965  -31.5769 H         1 B49         0.0000 
     48 H20       -17.9499   70.9959  -32.5271 H         1 B49         0.0000 
     49 H21       -18.2538   69.6413  -31.3872 H         1 B49         0.0000 
     50 H22       -18.9672   71.7452  -30.4924 H         1 B49         0.0000 
     51 H23       -17.3119   72.4219  -30.6624 H         1 B49         0.0000 
     52 H24       -17.6158   71.0673  -29.5225 H         1 B49         0.0000 
     53 H25       -14.5028   71.7455  -29.3046 H         1 B49         0.0000 
     54 H26       -16.1571   71.0666  -29.1338 H         1 B49         0.0000 
     55 H27       -15.8556   72.4218  -30.2737 H         1 B49         0.0000 
     56 H56       -16.4076   69.1801  -31.1250 H         1 B49         0.0000 
@<TRIPOS>BOND
     1    1   13 1    
     2    1   23 1    
     3    1   24 1    
     4    1   25 1    
     5    2    3 ar   
     6    2    6 ar   
     7    2   26 1    
     8    3   14 ar   
     9    3   27 1    
    10    4    6 ar   
    11    4    7 ar   
    12    4   28 1    
    13    5   11 1    
    14    5   15 ar   
    15    5   16 ar   
    16    6   22 1    
    17    7    8 1    
    18    7   14 ar   
    19    8    9 1    
    20    8   12 2    
    21    9   18 am   BACKBONE|DICT|INTERRES
    22    9   20 2    
    23   10   16 1    
    24   10   19 2    
    25   10   21 1    
    26   11   29 1    
    27   11   30 1    
    28   11   31 1    
    29   12   15 1    
    30   12   32 1    
    31   13   16 ar   
    32   13   17 ar   
    33   14   18 1    
    34   15   17 ar   
    35   17   33 1    
    36   18   34 1    
    37   19   35 1    
    38   35   36 1    
    39   35   42 1    
    40   35   43 1    
    41   36   37 1    
    42   36   44 1    
    43   36   45 1    
    44   37   38 1    
    45   37   39 1    
    46   37   56 1    
    47   38   41 1    
    48   38   46 1    
    49   38   47 1    
    50   39   40 1    
    51   39   48 1    
    52   39   49 1    
    53   40   50 1    
    54   40   51 1    
    55   40   52 1    
    56   41   53 1    
    57   41   54 1    
    58   41   55 1    
@<TRIPOS>SUBSTRUCTURE
     1 B49         1 GROUP             0       ****    0 ROOT    
@<TRIPOS>MOLECULE
B49
56   58    1
SMALL
USER_CHARGES


@<TRIPOS>ATOM
      1 C4        -12.5570   70.4800  -38.3840 C.3       1 B49         0.0000 
      2 C5        -17.2200   78.9120  -37.0410 C.ar      1 B49         0.0000 
      3 C6        -15.9490   78.6880  -37.6290 C.ar      1 B49         0.0000 
      4 C7        -17.4610   76.4830  -36.5450 C.ar      1 B49         0.0000 
      5 C13       -15.7520   71.3360  -36.5950 C.ar      1 B49         0.0000 
      6 C15       -17.9580   77.8080  -36.5030 C.ar      1 B49         0.0000 
      7 C17       -16.2070   76.2720  -37.1310 C.ar      1 B49         0.0000 
      8 C20       -15.3940   75.0750  -37.3600 C.2       1 B49         0.0000 
      9 C21       -14.1310   75.5470  -38.0500 C.2       1 B49         0.0000 
     10 C22       -14.9040   68.8820  -36.6820 C.2       1 B49         0.0000 
     11 C3        -17.0050   71.1090  -35.8030 C.3       1 B49         0.0000 
     12 C12       -15.8450   73.8610  -36.9720 C.2       1 B49         0.0000 
     13 C14       -13.8060   70.9660  -37.7090 C.ar      1 B49         0.0000 
     14 C16       -15.4740   77.3620  -37.6560 C.ar      1 B49         0.0000 
     15 C18       -15.2880   72.5530  -37.0820 C.ar      1 B49         0.0000 
     16 C19       -14.8080   70.3190  -36.9890 C.ar      1 B49         0.0000 
     17 N23       -14.1260   72.3020  -37.7440 N.pl3     1 B49         0.0000 
     18 N24       -14.2720   76.9180  -38.1800 N.2       1 B49         0.0000 
     19 N25       -15.2650   68.5790  -35.3700 N.am      1 B49         0.0000 
     20 O27       -13.1940   74.8890  -38.4210 O.co2     1 B49         0.0000 
     21 O28       -14.6630   68.0270  -37.5350 O.2       1 B49         0.0000 
     22 F29       -19.1470   78.0170  -35.9440 F         1 B49         0.0000 
     23 H4        -12.0357   71.3308  -38.8471 H         1 B49         0.0000 
     24 H4A       -12.8212   69.7458  -39.1593 H         1 B49         0.0000 
     25 H4B       -11.8986   70.0072  -37.6404 H         1 B49         0.0000 
     26 H5        -17.6300   79.9100  -36.9990 H         1 B49         0.0000 
     27 H6        -15.3690   79.5010  -38.0390 H         1 B49         0.0000 
     28 H7        -18.0310   75.6610  -36.1380 H         1 B49         0.0000 
     29 H3        -17.0988   70.0394  -35.5637 H         1 B49         0.0000 
     30 H3A       -17.8755   71.4303  -36.3938 H         1 B49         0.0000 
     31 H3B       -16.9598   71.6908  -34.8705 H         1 B49         0.0000 
     32 H12       -16.8183   73.7714  -36.4674 H         1 B49         0.0000 
     33 HN23      -13.4672   73.0119  -38.2655 H         1 B49         0.0000 
     34 HN25      -15.3286   67.4994  -35.1688 H         1 B49         0.0000 
     35 C37       -15.5500   69.5440  -34.2990 C.3       1 B49         0.0000 
     36 C38       -15.9380   69.0450  -32.8950 C.3       1 B49         0.0000 
     37 N4        -16.2230   70.0100  -31.8230 N.4       1 B49         0.0000 
     38 C39       -15.1350   70.4930  -30.9610 C.3       1 B49         0.0000 
     39 C40       -17.5960   70.4930  -31.6150 C.3       1 B49         0.0000 
     40 C41       -17.8940   71.5040  -30.4930 C.3       1 B49         0.0000 
     41 C42       -15.4340   71.5040  -29.8380 C.3       1 B49         0.0000 
     42 H14       -14.6620   70.1688  -34.1225 H         1 B49         0.0000 
     43 H15       -16.3946   70.1829  -34.5963 H         1 B49         0.0000 
     44 H16       -16.8562   68.4429  -32.9607 H         1 B49         0.0000 
     45 H17       -15.1236   68.4284  -32.4870 H         1 B49         0.0000 
     46 H18       -14.6767   69.6413  -30.4371 H         1 B49         0.0000 
     47 H19       -14.3752   70.9965  -31.5769 H         1 B49         0.0000 
     48 H20       -17.9499   70.9959  -32.5271 H         1 B49         0.0000 
     49 H21       -18.2538   69.6413  -31.3872 H         1 B49         0.0000 
     50 H22       -18.9672   71.7452  -30.4924 H         1 B49         0.0000 
     51 H23       -17.3119   72.4219  -30.6624 H         1 B49         0.0000 
     52 H24       -17.6158   71.0673  -29.5225 H         1 B49         0.0000 
     53 H25       -14.5028   71.7455  -29.3046 H         1 B49         0.0000 
     54 H26       -16.1571   71.0666  -29.1338 H         1 B49         0.0000 
     55 H27       -15.8556   72.4218  -30.2737 H         1 B49         0.0000 
     56 H56       -16.4076   69.1801  -31.1250 H         1 B49         0.0000 
@<TRIPOS>BOND
     1    1   13 1    
     2    1   23 1    
     3    1   24 1    
     4    1   25 1    
     5    2    3 ar   
     6    2    6 ar   
     7    2   26 1    
     8    3   14 ar   
     9    3   27 1    
    10    4    6 ar   
    11    4    7 ar   
    12    4   28 1    
    13    5   11 1    
    14    5   15 ar   
    15    5   16 ar   
    16    6   22 1    
    17    7    8 1    
    18    7   14 ar   
    19    8    9 1    
    20    8   12 2    
    21    9   18 2    
    22    9   20 1    
    23   10   16 1    
    24   10   19 am   BACKBONE|DICT|INTERRES
    25   10   21 2    
    26   11   29 1    
    27   11   30 1    
    28   11   31 1    
    29   12   15 1    
    30   12   32 1    
    31   13   16 ar   
    32   13   17 ar   
    33   14   18 1    
    34   15   17 ar   
    35   17   33 1    
    36   19   34 1    
    37   19   35 1    
    38   35   36 1    
    39   35   42 1    
    40   35   43 1    
    41   36   37 1    
    42   36   44 1    
    43   36   45 1    
    44   37   38 1    
    45   37   39 1    
    46   37   56 1    
    47   38   41 1    
    48   38   46 1    
    49   38   47 1    
    50   39   40 1    
    51   39   48 1    
    52   39   49 1    
    53   40   50 1    
    54   40   51 1    
    55   40   52 1    
    56   41   53 1    
    57   41   54 1    
    58   41   55 1    
@<TRIPOS>SUBSTRUCTURE
     1 B49         1 GROUP             0       ****    0 ROOT    
