@<TRIPOS>MOLECULE
diethyl-[2-[[5-[(5-fluoro-2-oxo-indolin-3-ylidene)methyl]-2,4-dimethyl-1~{H}-pyrrole-3-carbonyl]amino]ethyl]ammonium
   57    59     1     0     0
SMALL
USER_CHARGES

@<TRIPOS>ATOM
      1 C4        -12.5570   70.4800  -38.3840 C.3       1 B49        -0.0454
      2 C5        -17.2200   78.9120  -37.0410 C.ar      1 B49        -0.1186
      3 C6        -15.9490   78.6880  -37.6290 C.ar      1 B49        -0.1375
      4 C7        -17.4610   76.4830  -36.5450 C.ar      1 B49        -0.1025
      5 C13       -15.7520   71.3360  -36.5950 C.ar      1 B49        -0.0419
      6 C15       -17.9580   77.8080  -36.5030 C.ar      1 B49         0.0978
      7 C17       -16.2070   76.2720  -37.1310 C.ar      1 B49        -0.0991
      8 C20       -15.3940   75.0750  -37.3600 C.2       1 B49        -0.1085
      9 C21       -14.1310   75.5470  -38.0500 C.2       1 B49         0.7004
     10 C22       -14.9040   68.8820  -36.6820 C.2       1 B49         0.7295
     11 C3        -17.0050   71.1090  -35.8030 C.3       1 B49        -0.0371
     12 C12       -15.8450   73.8610  -36.9720 C.2       1 B49         0.0063
     13 C14       -13.8060   70.9660  -37.7090 C.ar      1 B49        -0.0405
     14 C16       -15.4740   77.3620  -37.6560 C.ar      1 B49         0.0507
     15 C18       -15.2880   72.5530  -37.0820 C.ar      1 B49        -0.1153
     16 C19       -14.8080   70.3190  -36.9890 C.ar      1 B49        -0.2481
     17 N23       -14.1260   72.3020  -37.7440 N.pl3     1 B49        -0.1267
     18 N24       -14.2720   76.9180  -38.1800 N.am      1 B49        -0.4707
     19 N25       -15.2650   68.5790  -35.3700 N.am      1 B49        -0.5969
     20 O27       -13.1940   74.8890  -38.4210 O.2       1 B49        -0.6187
     21 O28       -14.6630   68.0270  -37.5350 O.2       1 B49        -0.5891
     22 F29       -19.1470   78.0170  -35.9440 F         1 B49        -0.1329
     23 H4        -12.0357   71.3308  -38.8471 H         1 B49         0.0558
     24 H4A       -12.8212   69.7458  -39.1593 H         1 B49         0.0558
     25 H4B       -11.8986   70.0072  -37.6404 H         1 B49         0.0558
     26 H5        -17.6300   79.9100  -36.9990 H         1 B49         0.1605
     27 H6        -15.3690   79.5010  -38.0390 H         1 B49         0.1527
     28 H7        -18.0310   75.6610  -36.1380 H         1 B49         0.1541
     29 H3        -17.0988   70.0394  -35.5637 H         1 B49         0.0537
     30 H3A       -17.8755   71.4303  -36.3938 H         1 B49         0.0537
     31 H3B       -16.9598   71.6908  -34.8705 H         1 B49         0.0537
     32 H12       -16.8183   73.7714  -36.4674 H         1 B49         0.1549
     33 HN23      -13.4672   73.0119  -38.2655 H         1 B49         0.3187
     34 HN24      -13.4762   77.5101  -38.6555 H         1 B49         0.3510
     35 HN25      -15.3286   67.4994  -35.1688 H         1 B49         0.3274
     36 C37       -15.5500   69.5440  -34.2990 C.3       1 B49         0.0904
     37 C38       -15.9380   69.0450  -32.8950 C.3       1 B49         0.0650
     38 N4        -16.2230   70.0100  -31.8230 N.4       1 B49        -0.6816
     39 C39       -15.1350   70.4930  -30.9610 C.3       1 B49         0.1110
     40 C40       -17.5960   70.4930  -31.6150 C.3       1 B49         0.1110
     41 C41       -17.8940   71.5040  -30.4930 C.3       1 B49        -0.1317
     42 C42       -15.4340   71.5040  -29.8380 C.3       1 B49        -0.1317
     43 H14       -14.6620   70.1688  -34.1225 H         1 B49         0.0737
     44 H15       -16.3946   70.1829  -34.5963 H         1 B49         0.0737
     45 H16       -16.8562   68.4429  -32.9607 H         1 B49         0.1005
     46 H17       -15.1236   68.4284  -32.4870 H         1 B49         0.1005
     47 H18       -14.6767   69.6413  -30.4371 H         1 B49         0.1001
     48 H19       -14.3752   70.9965  -31.5769 H         1 B49         0.1001
     49 H20       -17.9499   70.9959  -32.5271 H         1 B49         0.1001
     50 H21       -18.2538   69.6413  -31.3872 H         1 B49         0.1001
     51 H22       -18.9672   71.7452  -30.4924 H         1 B49         0.0791
     52 H23       -17.3119   72.4219  -30.6624 H         1 B49         0.0791
     53 H24       -17.6158   71.0673  -29.5225 H         1 B49         0.0791
     54 H25       -14.5028   71.7455  -29.3046 H         1 B49         0.0791
     55 H26       -16.1571   71.0666  -29.1338 H         1 B49         0.0791
     56 H27       -15.8556   72.4218  -30.2737 H         1 B49         0.0791
     57 H57       -16.4076   69.1801  -31.1250 H         1 B49         0.4410
@<TRIPOS>BOND
     1    1   13 1
     2    1   23 1
     3    1   24 1
     4    1   25 1
     5    2    3 ar
     6    2    6 ar
     7    2   26 1
     8    3   14 ar
     9    3   27 1
    10    4    6 ar
    11    4    7 ar
    12    4   28 1
    13    5   11 1
    14    5   15 ar
    15    5   16 ar
    16    6   22 1
    17    7    8 1
    18    7   14 ar
    19    8    9 1
    20    8   12 2
    21    9   18 am
    22    9   20 2
    23   10   16 1
    24   10   19 am
    25   10   21 2
    26   11   29 1
    27   11   30 1
    28   11   31 1
    29   12   15 1
    30   12   32 1
    31   13   16 ar
    32   13   17 ar
    33   14   18 1
    34   15   17 ar
    35   17   33 1
    36   18   34 1
    37   19   35 1
    38   19   36 1
    39   36   37 1
    40   36   43 1
    41   36   44 1
    42   37   38 1
    43   37   45 1
    44   37   46 1
    45   38   39 1
    46   38   40 1
    47   38   57 1
    48   39   42 1
    49   39   47 1
    50   39   48 1
    51   40   41 1
    52   40   49 1
    53   40   50 1
    54   41   51 1
    55   41   52 1
    56   41   53 1
    57   42   54 1
    58   42   55 1
    59   42   56 1
@<TRIPOS>SUBSTRUCTURE
     1 B49         1 GROUP   0 A     ****
@<TRIPOS>MOLECULE
~{N}-[2-(diethylamino)ethyl]-5-[(5-fluoro-2-oxo-indolin-3-ylidene)methyl]-2,4-dimethyl-1~{H}-pyrrole-3-carboxamide
   56    58     1     0     0
SMALL
USER_CHARGES

@<TRIPOS>ATOM
      1 C4        -12.5570   70.4800  -38.3840 C.3       1 B49        -0.0439
      2 C5        -17.2200   78.9120  -37.0410 C.ar      1 B49        -0.1208
      3 C6        -15.9490   78.6880  -37.6290 C.ar      1 B49        -0.1509
      4 C7        -17.4610   76.4830  -36.5450 C.ar      1 B49        -0.1015
      5 C13       -15.7520   71.3360  -36.5950 C.ar      1 B49        -0.0466
      6 C15       -17.9580   77.8080  -36.5030 C.ar      1 B49         0.0854
      7 C17       -16.2070   76.2720  -37.1310 C.ar      1 B49        -0.1023
      8 C20       -15.3940   75.0750  -37.3600 C.2       1 B49        -0.1041
      9 C21       -14.1310   75.5470  -38.0500 C.2       1 B49         0.7012
     10 C22       -14.9040   68.8820  -36.6820 C.2       1 B49         0.7080
     11 C3        -17.0050   71.1090  -35.8030 C.3       1 B49        -0.0323
     12 C12       -15.8450   73.8610  -36.9720 C.2       1 B49         0.0128
     13 C14       -13.8060   70.9660  -37.7090 C.ar      1 B49        -0.0585
     14 C16       -15.4740   77.3620  -37.6560 C.ar      1 B49         0.0631
     15 C18       -15.2880   72.5530  -37.0820 C.ar      1 B49        -0.1364
     16 C19       -14.8080   70.3190  -36.9890 C.ar      1 B49        -0.2136
     17 N23       -14.1260   72.3020  -37.7440 N.pl3     1 B49        -0.1538
     18 N24       -14.2720   76.9180  -38.1800 N.am      1 B49        -0.4850
     19 N25       -15.2650   68.5790  -35.3700 N.am      1 B49        -0.5832
     20 O27       -13.1940   74.8890  -38.4210 O.2       1 B49        -0.5654
     21 O28       -14.6630   68.0270  -37.5350 O.2       1 B49        -0.5915
     22 F29       -19.1470   78.0170  -35.9440 F         1 B49        -0.1406
     23 H4        -12.0357   71.3308  -38.8471 H         1 B49         0.0548
     24 H4A       -12.8212   69.7458  -39.1593 H         1 B49         0.0548
     25 H4B       -11.8986   70.0072  -37.6404 H         1 B49         0.0548
     26 H5        -17.6300   79.9100  -36.9990 H         1 B49         0.1520
     27 H6        -15.3690   79.5010  -38.0390 H         1 B49         0.1477
     28 H7        -18.0310   75.6610  -36.1380 H         1 B49         0.1531
     29 H3        -17.0988   70.0394  -35.5637 H         1 B49         0.0501
     30 H3A       -17.8755   71.4303  -36.3938 H         1 B49         0.0501
     31 H3B       -16.9598   71.6908  -34.8705 H         1 B49         0.0501
     32 H12       -16.8183   73.7714  -36.4674 H         1 B49         0.1462
     33 HN23      -13.4672   73.0119  -38.2655 H         1 B49         0.2992
     34 HN24      -13.4762   77.5101  -38.6555 H         1 B49         0.3454
     35 HN25      -15.3286   67.4994  -35.1688 H         1 B49         0.3061
     36 C37       -15.5500   69.5440  -34.2990 C.3       1 B49         0.0862
     37 C38       -15.9380   69.0450  -32.8950 C.3       1 B49         0.1430
     38 N4        -16.2230   70.0100  -31.8230 N.3       1 B49        -0.7235
     39 C39       -15.1350   70.4930  -30.9610 C.3       1 B49         0.1660
     40 C40       -17.5960   70.4930  -31.6150 C.3       1 B49         0.1660
     41 C41       -17.8940   71.5040  -30.4930 C.3       1 B49        -0.0953
     42 C42       -15.4340   71.5040  -29.8380 C.3       1 B49        -0.0953
     43 H14       -14.6620   70.1688  -34.1225 H         1 B49         0.0657
     44 H15       -16.3946   70.1829  -34.5963 H         1 B49         0.0657
     45 H16       -16.8562   68.4429  -32.9607 H         1 B49         0.0319
     46 H17       -15.1236   68.4284  -32.4870 H         1 B49         0.0319
     47 H18       -14.6767   69.6413  -30.4371 H         1 B49         0.0295
     48 H19       -14.3752   70.9965  -31.5769 H         1 B49         0.0295
     49 H20       -17.9499   70.9959  -32.5271 H         1 B49         0.0295
     50 H21       -18.2538   69.6413  -31.3872 H         1 B49         0.0295
     51 H22       -18.9672   71.7452  -30.4924 H         1 B49         0.0392
     52 H23       -17.3119   72.4219  -30.6624 H         1 B49         0.0392
     53 H24       -17.6158   71.0673  -29.5225 H         1 B49         0.0392
     54 H25       -14.5028   71.7455  -29.3046 H         1 B49         0.0392
     55 H26       -16.1571   71.0666  -29.1338 H         1 B49         0.0392
     56 H27       -15.8556   72.4218  -30.2737 H         1 B49         0.0392
@<TRIPOS>BOND
     1    1   13 1
     2    1   23 1
     3    1   24 1
     4    1   25 1
     5    2    3 ar
     6    2    6 ar
     7    2   26 1
     8    3   14 ar
     9    3   27 1
    10    4    6 ar
    11    4    7 ar
    12    4   28 1
    13    5   11 1
    14    5   15 ar
    15    5   16 ar
    16    6   22 1
    17    7    8 1
    18    7   14 ar
    19    8    9 1
    20    8   12 2
    21    9   18 am
    22    9   20 2
    23   10   16 1
    24   10   19 am
    25   10   21 2
    26   11   29 1
    27   11   30 1
    28   11   31 1
    29   12   15 1
    30   12   32 1
    31   13   16 ar
    32   13   17 ar
    33   14   18 1
    34   15   17 ar
    35   17   33 1
    36   18   34 1
    37   19   35 1
    38   19   36 1
    39   36   37 1
    40   36   43 1
    41   36   44 1
    42   37   38 1
    43   37   45 1
    44   37   46 1
    45   38   39 1
    46   38   40 1
    47   39   42 1
    48   39   47 1
    49   39   48 1
    50   40   41 1
    51   40   49 1
    52   40   50 1
    53   41   51 1
    54   41   52 1
    55   41   53 1
    56   42   54 1
    57   42   55 1
    58   42   56 1
@<TRIPOS>SUBSTRUCTURE
     1 B49         1 GROUP   0 A     ****
@<TRIPOS>MOLECULE
~{N}-[2-(diethylammonio)ethyl]-5-[(5-fluoro-2-oxo-indolin-3-ylidene)methyl]-2,4-dimethyl-1~{H}-pyrrole-3-carboximidate
   56    58     1     0     0
SMALL
USER_CHARGES

@<TRIPOS>ATOM
      1 C4        -12.5570   70.4800  -38.3840 C.3       1 B49        -0.0328
      2 C5        -17.2200   78.9120  -37.0410 C.ar      1 B49        -0.1308
      3 C6        -15.9490   78.6880  -37.6290 C.ar      1 B49        -0.1496
      4 C7        -17.4610   76.4830  -36.5450 C.ar      1 B49        -0.1165
      5 C13       -15.7520   71.3360  -36.5950 C.ar      1 B49        -0.0623
      6 C15       -17.9580   77.8080  -36.5030 C.ar      1 B49         0.0855
      7 C17       -16.2070   76.2720  -37.1310 C.ar      1 B49        -0.0784
      8 C20       -15.3940   75.0750  -37.3600 C.2       1 B49        -0.1625
      9 C21       -14.1310   75.5470  -38.0500 C.2       1 B49         0.7055
     10 C22       -14.9040   68.8820  -36.6820 C.2       1 B49         0.9849
     11 C3        -17.0050   71.1090  -35.8030 C.3       1 B49        -0.0308
     12 C12       -15.8450   73.8610  -36.9720 C.2       1 B49         0.0635
     13 C14       -13.8060   70.9660  -37.7090 C.ar      1 B49        -0.0749
     14 C16       -15.4740   77.3620  -37.6560 C.ar      1 B49         0.0526
     15 C18       -15.2880   72.5530  -37.0820 C.ar      1 B49        -0.1913
     16 C19       -14.8080   70.3190  -36.9890 C.ar      1 B49        -0.2491
     17 N23       -14.1260   72.3020  -37.7440 N.pl3     1 B49        -0.1667
     18 N24       -14.2720   76.9180  -38.1800 N.am      1 B49        -0.4821
     19 N25       -15.2650   68.5790  -35.3700 N.2       1 B49        -0.9127
     20 O27       -13.1940   74.8890  -38.4210 O.2       1 B49        -0.5977
     21 O28       -14.6630   68.0270  -37.5350 O.3       1 B49        -0.7433
     22 F29       -19.1470   78.0170  -35.9440 F         1 B49        -0.1469
     23 H4        -12.0357   71.3308  -38.8471 H         1 B49         0.0487
     24 H4A       -12.8212   69.7458  -39.1593 H         1 B49         0.0487
     25 H4B       -11.8986   70.0072  -37.6404 H         1 B49         0.0487
     26 H5        -17.6300   79.9100  -36.9990 H         1 B49         0.1495
     27 H6        -15.3690   79.5010  -38.0390 H         1 B49         0.1443
     28 H7        -18.0310   75.6610  -36.1380 H         1 B49         0.1484
     29 H3        -17.0988   70.0394  -35.5637 H         1 B49         0.0431
     30 H3A       -17.8755   71.4303  -36.3938 H         1 B49         0.0431
     31 H3B       -16.9598   71.6908  -34.8705 H         1 B49         0.0431
     32 H12       -16.8183   73.7714  -36.4674 H         1 B49         0.1340
     33 HN23      -13.4672   73.0119  -38.2655 H         1 B49         0.2903
     34 HN24      -13.4762   77.5101  -38.6555 H         1 B49         0.3424
     35 C37       -15.5500   69.5440  -34.2990 C.3       1 B49         0.1915
     36 C38       -15.9380   69.0450  -32.8950 C.3       1 B49         0.1103
     37 N4        -16.2230   70.0100  -31.8230 N.4       1 B49        -0.6833
     38 C39       -15.1350   70.4930  -30.9610 C.3       1 B49         0.1102
     39 C40       -17.5960   70.4930  -31.6150 C.3       1 B49         0.1102
     40 C41       -17.8940   71.5040  -30.4930 C.3       1 B49        -0.1276
     41 C42       -15.4340   71.5040  -29.8380 C.3       1 B49        -0.1276
     42 H14       -14.6620   70.1688  -34.1225 H         1 B49        -0.0256
     43 H15       -16.3946   70.1829  -34.5963 H         1 B49        -0.0256
     44 H16       -16.8562   68.4429  -32.9607 H         1 B49         0.0943
     45 H17       -15.1236   68.4284  -32.4870 H         1 B49         0.0943
     46 H18       -14.6767   69.6413  -30.4371 H         1 B49         0.0965
     47 H19       -14.3752   70.9965  -31.5769 H         1 B49         0.0965
     48 H20       -17.9499   70.9959  -32.5271 H         1 B49         0.0965
     49 H21       -18.2538   69.6413  -31.3872 H         1 B49         0.0965
     50 H22       -18.9672   71.7452  -30.4924 H         1 B49         0.0709
     51 H23       -17.3119   72.4219  -30.6624 H         1 B49         0.0709
     52 H24       -17.6158   71.0673  -29.5225 H         1 B49         0.0709
     53 H25       -14.5028   71.7455  -29.3046 H         1 B49         0.0709
     54 H26       -16.1571   71.0666  -29.1338 H         1 B49         0.0709
     55 H27       -15.8556   72.4218  -30.2737 H         1 B49         0.0709
     56 H56       -16.4076   69.1801  -31.1250 H         1 B49         0.4196
@<TRIPOS>BOND
     1    1   13 1
     2    1   23 1
     3    1   24 1
     4    1   25 1
     5    2    3 ar
     6    2    6 ar
     7    2   26 1
     8    3   14 ar
     9    3   27 1
    10    4    6 ar
    11    4    7 ar
    12    4   28 1
    13    5   11 1
    14    5   15 ar
    15    5   16 ar
    16    6   22 1
    17    7    8 1
    18    7   14 ar
    19    8    9 1
    20    8   12 2
    21    9   18 am
    22    9   20 2
    23   10   16 1
    24   10   19 2
    25   10   21 1
    26   11   29 1
    27   11   30 1
    28   11   31 1
    29   12   15 1
    30   12   32 1
    31   13   16 ar
    32   13   17 ar
    33   14   18 1
    34   15   17 ar
    35   17   33 1
    36   18   34 1
    37   19   35 1
    38   35   36 1
    39   35   42 1
    40   35   43 1
    41   36   37 1
    42   36   44 1
    43   36   45 1
    44   37   38 1
    45   37   39 1
    46   37   56 1
    47   38   41 1
    48   38   46 1
    49   38   47 1
    50   39   40 1
    51   39   48 1
    52   39   49 1
    53   40   50 1
    54   40   51 1
    55   40   52 1
    56   41   53 1
    57   41   54 1
    58   41   55 1
@<TRIPOS>SUBSTRUCTURE
     1 B49         1 GROUP   0 A     ****
@<TRIPOS>MOLECULE
3-[[4-[2-(diethylammonio)ethylcarbamoyl]-3,5-dimethyl-1~{H}-pyrrol-2-yl]methylene]-5-fluoro-indol-2-olate
   56    58     1     0     0
SMALL
USER_CHARGES

@<TRIPOS>ATOM
      1 C4        -12.5570   70.4800  -38.3840 C.3       1 B49        -0.0337
      2 C5        -17.2200   78.9120  -37.0410 C.ar      1 B49        -0.0971
      3 C6        -15.9490   78.6880  -37.6290 C.ar      1 B49        -0.1969
      4 C7        -17.4610   76.4830  -36.5450 C.ar      1 B49        -0.0679
      5 C13       -15.7520   71.3360  -36.5950 C.ar      1 B49        -0.1093
      6 C15       -17.9580   77.8080  -36.5030 C.ar      1 B49        -0.0212
      7 C17       -16.2070   76.2720  -37.1310 C.ar      1 B49        -0.2262
      8 C20       -15.3940   75.0750  -37.3600 C.2       1 B49        -0.1366
      9 C21       -14.1310   75.5470  -38.0500 C.2       1 B49         0.9534
     10 C22       -14.9040   68.8820  -36.6820 C.2       1 B49         0.7414
     11 C3        -17.0050   71.1090  -35.8030 C.3       1 B49        -0.0172
     12 C12       -15.8450   73.8610  -36.9720 C.2       1 B49        -0.1352
     13 C14       -13.8060   70.9660  -37.7090 C.ar      1 B49        -0.0765
     14 C16       -15.4740   77.3620  -37.6560 C.ar      1 B49         0.2489
     15 C18       -15.2880   72.5530  -37.0820 C.ar      1 B49        -0.0167
     16 C19       -14.8080   70.3190  -36.9890 C.ar      1 B49        -0.2537
     17 N23       -14.1260   72.3020  -37.7440 N.pl3     1 B49        -0.1224
     18 N24       -14.2720   76.9180  -38.1800 N.2       1 B49        -0.7774
     19 N25       -15.2650   68.5790  -35.3700 N.am      1 B49        -0.6077
     20 O27       -13.1940   74.8890  -38.4210 O.3       1 B49        -0.7433
     21 O28       -14.6630   68.0270  -37.5350 O.2       1 B49        -0.6000
     22 F29       -19.1470   78.0170  -35.9440 F         1 B49        -0.1763
     23 H4        -12.0357   71.3308  -38.8471 H         1 B49         0.0455
     24 H4A       -12.8212   69.7458  -39.1593 H         1 B49         0.0455
     25 H4B       -11.8986   70.0072  -37.6404 H         1 B49         0.0455
     26 H5        -17.6300   79.9100  -36.9990 H         1 B49         0.1205
     27 H6        -15.3690   79.5010  -38.0390 H         1 B49         0.1339
     28 H7        -18.0310   75.6610  -36.1380 H         1 B49         0.1188
     29 H3        -17.0988   70.0394  -35.5637 H         1 B49         0.0400
     30 H3A       -17.8755   71.4303  -36.3938 H         1 B49         0.0400
     31 H3B       -16.9598   71.6908  -34.8705 H         1 B49         0.0400
     32 H12       -16.8183   73.7714  -36.4674 H         1 B49         0.1265
     33 HN23      -13.4672   73.0119  -38.2655 H         1 B49         0.3349
     34 HN25      -15.3286   67.4994  -35.1688 H         1 B49         0.3165
     35 C37       -15.5500   69.5440  -34.2990 C.3       1 B49         0.0935
     36 C38       -15.9380   69.0450  -32.8950 C.3       1 B49         0.0658
     37 N4        -16.2230   70.0100  -31.8230 N.4       1 B49        -0.6826
     38 C39       -15.1350   70.4930  -30.9610 C.3       1 B49         0.1089
     39 C40       -17.5960   70.4930  -31.6150 C.3       1 B49         0.1089
     40 C41       -17.8940   71.5040  -30.4930 C.3       1 B49        -0.1314
     41 C42       -15.4340   71.5040  -29.8380 C.3       1 B49        -0.1314
     42 H14       -14.6620   70.1688  -34.1225 H         1 B49         0.0618
     43 H15       -16.3946   70.1829  -34.5963 H         1 B49         0.0618
     44 H16       -16.8562   68.4429  -32.9607 H         1 B49         0.1031
     45 H17       -15.1236   68.4284  -32.4870 H         1 B49         0.1031
     46 H18       -14.6767   69.6413  -30.4371 H         1 B49         0.0999
     47 H19       -14.3752   70.9965  -31.5769 H         1 B49         0.0999
     48 H20       -17.9499   70.9959  -32.5271 H         1 B49         0.0999
     49 H21       -18.2538   69.6413  -31.3872 H         1 B49         0.0999
     50 H22       -18.9672   71.7452  -30.4924 H         1 B49         0.0759
     51 H23       -17.3119   72.4219  -30.6624 H         1 B49         0.0759
     52 H24       -17.6158   71.0673  -29.5225 H         1 B49         0.0759
     53 H25       -14.5028   71.7455  -29.3046 H         1 B49         0.0759
     54 H26       -16.1571   71.0666  -29.1338 H         1 B49         0.0759
     55 H27       -15.8556   72.4218  -30.2737 H         1 B49         0.0759
     56 H56       -16.4076   69.1801  -31.1250 H         1 B49         0.4476
@<TRIPOS>BOND
     1    1   13 1
     2    1   23 1
     3    1   24 1
     4    1   25 1
     5    2    3 ar
     6    2    6 ar
     7    2   26 1
     8    3   14 ar
     9    3   27 1
    10    4    6 ar
    11    4    7 ar
    12    4   28 1
    13    5   11 1
    14    5   15 ar
    15    5   16 ar
    16    6   22 1
    17    7    8 1
    18    7   14 ar
    19    8    9 1
    20    8   12 2
    21    9   18 2
    22    9   20 1
    23   10   16 1
    24   10   19 am
    25   10   21 2
    26   11   29 1
    27   11   30 1
    28   11   31 1
    29   12   15 1
    30   12   32 1
    31   13   16 ar
    32   13   17 ar
    33   14   18 1
    34   15   17 ar
    35   17   33 1
    36   19   34 1
    37   19   35 1
    38   35   36 1
    39   35   42 1
    40   35   43 1
    41   36   37 1
    42   36   44 1
    43   36   45 1
    44   37   38 1
    45   37   39 1
    46   37   56 1
    47   38   41 1
    48   38   46 1
    49   38   47 1
    50   39   40 1
    51   39   48 1
    52   39   49 1
    53   40   50 1
    54   40   51 1
    55   40   52 1
    56   41   53 1
    57   41   54 1
    58   41   55 1
@<TRIPOS>SUBSTRUCTURE
     1 B49         1 GROUP   0 A     ****
