@<TRIPOS>MOLECULE
BAX
48   50    1
SMALL
USER_CHARGES


@<TRIPOS>ATOM
      1 C1         97.4390   32.6310   64.4430 C.ar      1 BAX         0.0000 
      2 C2         98.5430   32.6540   65.2530 C.ar      1 BAX         0.0000 
      3 C3         99.8240   32.8580   64.7400 C.ar      1 BAX         0.0000 
      4 C4         99.9800   33.0320   63.3840 C.ar      1 BAX         0.0000 
      5 C13        97.6190   31.4940   67.6390 C.2       1 BAX         0.0000 
      6 C16        96.9410   30.6670   70.0600 C.ar      1 BAX         0.0000 
      7 C17        96.7630   31.0330   71.4700 C.ar      1 BAX         0.0000 
      8 C18        96.1330   30.1310   72.3250 C.ar      1 BAX         0.0000 
      9 C19        95.6740   28.9120   71.8440 C.ar      1 BAX         0.0000 
     10 C20        95.8410   28.5680   70.5010 C.ar      1 BAX         0.0000 
     11 C21        96.4710   29.4310   69.6120 C.ar      1 BAX         0.0000 
     12 O22        95.0620   28.0390   72.7080 O.3       1 BAX         0.0000 
     13 C24        92.6430   28.7190   72.0820 C.ar      1 BAX         0.0000 
     14 C25        91.3230   28.2700   72.0590 C.ar      1 BAX         0.0000 
     15 C27        92.0960   26.0980   73.0070 C.ar      1 BAX         0.0000 
     16 C28        93.3500   26.5660   73.0110 C.ar      1 BAX         0.0000 
     17 N30        90.8040   23.7300   73.1400 N.am      1 BAX         0.0000 
     18 C31        89.8590   23.5480   74.2000 C.3       1 BAX         0.0000 
     19 C5         98.8590   33.0100   62.5450 C.ar      1 BAX         0.0000 
     20 C6         97.5340   32.7970   63.0920 C.ar      1 BAX         0.0000 
     21 C7         96.3730   32.7550   62.3340 C.3       1 BAX         0.0000 
     22 F8         96.1820   33.9020   61.6910 F         1 BAX         0.0000 
     23 F9         96.4840   31.7570   61.4570 F         1 BAX         0.0000 
     24 F10        95.2670   32.5160   63.0470 F         1 BAX         0.0000 
     25 CL11       99.1700   33.2420   60.7940 Cl        1 BAX         0.0000 
     26 N12        98.2940   32.4470   66.6210 N.am      1 BAX         0.0000 
     27 N14        97.6960   31.6230   69.0510 N.am      1 BAX         0.0000 
     28 O15        96.6860   30.9070   67.1450 O.2       1 BAX         0.0000 
     29 C23        93.6740   27.7950   72.5920 C.ar      1 BAX         0.0000 
     30 N26        91.0430   26.9170   72.5320 N.ar      1 BAX         0.0000 
     31 C29        91.9130   24.6340   73.5250 C.2       1 BAX         0.0000 
     32 O32        92.9960   23.9820   73.7350 O.2       1 BAX         0.0000 
     33 H1         96.4450   32.4740   64.8950 H         1 BAX         0.0000 
     34 H3        100.6990   32.8800   65.4110 H         1 BAX         0.0000 
     35 H4        100.9860   33.1880   62.9590 H         1 BAX         0.0000 
     36 H17        97.1220   32.0060   71.8470 H         1 BAX         0.0000 
     37 H18        95.9980   30.3870   73.3900 H         1 BAX         0.0000 
     38 H20        95.4670   27.5950   70.1400 H         1 BAX         0.0000 
     39 H21        96.5990   29.1400   68.5560 H         1 BAX         0.0000 
     40 H24        92.9070   29.7310   71.7310 H         1 BAX         0.0000 
     41 H25        90.5110   28.9200   71.6930 H         1 BAX         0.0000 
     42 H28        94.1550   25.9070   73.3770 H         1 BAX         0.0000 
     43 H30        90.6541   23.2214   72.1762 H         1 BAX         0.0000 
     44 H311       89.0586   22.8716   73.8655 H         1 BAX         0.0000 
     45 H312       89.4256   24.5207   74.4759 H         1 BAX         0.0000 
     46 H313       90.3667   23.1119   75.0730 H         1 BAX         0.0000 
     47 H12        98.6690   33.1669   67.3634 H         1 BAX         0.0000 
     48 H14        98.3061   32.4218   69.4979 H         1 BAX         0.0000 
@<TRIPOS>BOND
     1    1    2 ar   
     2    1   20 ar   
     3    1   33 1    
     4    2    3 ar   
     5    2   26 1    
     6    3    4 ar   
     7    3   34 1    
     8    4   19 ar   
     9    4   35 1    
    10    5   26 am   BACKBONE|DICT|INTERRES
    11    5   27 am   BACKBONE|DICT|INTERRES
    12    5   28 2    
    13    6    7 ar   
    14    6   11 ar   
    15    6   27 1    
    16    7    8 ar   
    17    7   36 1    
    18    8    9 ar   
    19    8   37 1    
    20    9   10 ar   
    21    9   12 1    
    22   10   11 ar   
    23   10   38 1    
    24   11   39 1    
    25   12   29 1    
    26   13   14 ar   
    27   13   29 ar   
    28   13   40 1    
    29   14   30 ar   
    30   14   41 1    
    31   15   16 ar   
    32   15   30 ar   
    33   15   31 1    
    34   16   29 ar   
    35   16   42 1    
    36   17   18 1    
    37   17   31 am   BACKBONE|DICT|INTERRES
    38   17   43 1    
    39   18   44 1    
    40   18   45 1    
    41   18   46 1    
    42   19   20 ar   
    43   19   25 1    
    44   20   21 1    
    45   21   22 1    
    46   21   23 1    
    47   21   24 1    
    48   26   47 1    
    49   27   48 1    
    50   31   32 2    
@<TRIPOS>SUBSTRUCTURE
     1 BAX         1 GROUP             0       ****    0 ROOT    
@<TRIPOS>MOLECULE
BAX
49   51    1
SMALL
USER_CHARGES


@<TRIPOS>ATOM
      1 C1         97.4390   32.6310   64.4430 C.ar      1 BAX         0.0000 
      2 C2         98.5430   32.6540   65.2530 C.ar      1 BAX         0.0000 
      3 C3         99.8240   32.8580   64.7400 C.ar      1 BAX         0.0000 
      4 C4         99.9800   33.0320   63.3840 C.ar      1 BAX         0.0000 
      5 C13        97.6190   31.4940   67.6390 C.2       1 BAX         0.0000 
      6 C16        96.9410   30.6670   70.0600 C.ar      1 BAX         0.0000 
      7 C17        96.7630   31.0330   71.4700 C.ar      1 BAX         0.0000 
      8 C18        96.1330   30.1310   72.3250 C.ar      1 BAX         0.0000 
      9 C19        95.6740   28.9120   71.8440 C.ar      1 BAX         0.0000 
     10 C20        95.8410   28.5680   70.5010 C.ar      1 BAX         0.0000 
     11 C21        96.4710   29.4310   69.6120 C.ar      1 BAX         0.0000 
     12 O22        95.0620   28.0390   72.7080 O.3       1 BAX         0.0000 
     13 C24        92.6430   28.7190   72.0820 C.ar      1 BAX         0.0000 
     14 C25        91.3230   28.2700   72.0590 C.ar      1 BAX         0.0000 
     15 C27        92.0960   26.0980   73.0070 C.ar      1 BAX         0.0000 
     16 C28        93.3500   26.5660   73.0110 C.ar      1 BAX         0.0000 
     17 N30        90.8040   23.7300   73.1400 N.am      1 BAX         0.0000 
     18 C31        89.8590   23.5480   74.2000 C.3       1 BAX         0.0000 
     19 C5         98.8590   33.0100   62.5450 C.ar      1 BAX         0.0000 
     20 C6         97.5340   32.7970   63.0920 C.ar      1 BAX         0.0000 
     21 C7         96.3730   32.7550   62.3340 C.3       1 BAX         0.0000 
     22 F8         96.1820   33.9020   61.6910 F         1 BAX         0.0000 
     23 F9         96.4840   31.7570   61.4570 F         1 BAX         0.0000 
     24 F10        95.2670   32.5160   63.0470 F         1 BAX         0.0000 
     25 CL11       99.1700   33.2420   60.7940 Cl        1 BAX         0.0000 
     26 N12        98.2940   32.4470   66.6210 N.am      1 BAX         0.0000 
     27 N14        97.6960   31.6230   69.0510 N.am      1 BAX         0.0000 
     28 O15        96.6860   30.9070   67.1450 O.2       1 BAX         0.0000 
     29 C23        93.6740   27.7950   72.5920 C.ar      1 BAX         0.0000 
     30 N26        91.0430   26.9170   72.5320 N.pl3     1 BAX         0.0000 
     31 C29        91.9130   24.6340   73.5250 C.2       1 BAX         0.0000 
     32 O32        92.9960   23.9820   73.7350 O.2       1 BAX         0.0000 
     33 H1         96.4450   32.4740   64.8950 H         1 BAX         0.0000 
     34 H3        100.6990   32.8800   65.4110 H         1 BAX         0.0000 
     35 H4        100.9860   33.1880   62.9590 H         1 BAX         0.0000 
     36 H17        97.1220   32.0060   71.8470 H         1 BAX         0.0000 
     37 H18        95.9980   30.3870   73.3900 H         1 BAX         0.0000 
     38 H20        95.4670   27.5950   70.1400 H         1 BAX         0.0000 
     39 H21        96.5990   29.1400   68.5560 H         1 BAX         0.0000 
     40 H24        92.9070   29.7310   71.7310 H         1 BAX         0.0000 
     41 H25        90.5110   28.9200   71.6930 H         1 BAX         0.0000 
     42 H28        94.1550   25.9070   73.3770 H         1 BAX         0.0000 
     43 H30        90.6541   23.2214   72.1762 H         1 BAX         0.0000 
     44 H311       89.0586   22.8716   73.8655 H         1 BAX         0.0000 
     45 H312       89.4256   24.5207   74.4759 H         1 BAX         0.0000 
     46 H313       90.3667   23.1119   75.0730 H         1 BAX         0.0000 
     47 H12        98.6690   33.1669   67.3634 H         1 BAX         0.0000 
     48 H14        98.3061   32.4218   69.4979 H         1 BAX         0.0000 
     49 H49        90.0125   26.5323   72.5197 H         1 BAX         0.0000 
@<TRIPOS>BOND
     1    1    2 ar   
     2    1   20 ar   
     3    1   33 1    
     4    2    3 ar   
     5    2   26 1    
     6    3    4 ar   
     7    3   34 1    
     8    4   19 ar   
     9    4   35 1    
    10    5   26 am   BACKBONE|DICT|INTERRES
    11    5   27 am   BACKBONE|DICT|INTERRES
    12    5   28 2    
    13    6    7 ar   
    14    6   11 ar   
    15    6   27 1    
    16    7    8 ar   
    17    7   36 1    
    18    8    9 ar   
    19    8   37 1    
    20    9   10 ar   
    21    9   12 1    
    22   10   11 ar   
    23   10   38 1    
    24   11   39 1    
    25   12   29 1    
    26   13   14 ar   
    27   13   29 ar   
    28   13   40 1    
    29   14   30 ar   
    30   14   41 1    
    31   15   16 ar   
    32   15   30 ar   
    33   15   31 1    
    34   16   29 ar   
    35   16   42 1    
    36   17   18 1    
    37   17   31 am   BACKBONE|DICT|INTERRES
    38   17   43 1    
    39   18   44 1    
    40   18   45 1    
    41   18   46 1    
    42   19   20 ar   
    43   19   25 1    
    44   20   21 1    
    45   21   22 1    
    46   21   23 1    
    47   21   24 1    
    48   26   47 1    
    49   27   48 1    
    50   30   49 1    
    51   31   32 2    
@<TRIPOS>SUBSTRUCTURE
     1 BAX         1 GROUP             0       ****    0 ROOT    
@<TRIPOS>MOLECULE
BAX
48   50    1
SMALL
USER_CHARGES


@<TRIPOS>ATOM
      1 C1         97.4390   32.6310   64.4430 C.ar      1 BAX         0.0000 
      2 C2         98.5430   32.6540   65.2530 C.ar      1 BAX         0.0000 
      3 C3         99.8240   32.8580   64.7400 C.ar      1 BAX         0.0000 
      4 C4         99.9800   33.0320   63.3840 C.ar      1 BAX         0.0000 
      5 C13        97.6190   31.4940   67.6390 C.2       1 BAX         0.0000 
      6 C16        96.9410   30.6670   70.0600 C.ar      1 BAX         0.0000 
      7 C17        96.7630   31.0330   71.4700 C.ar      1 BAX         0.0000 
      8 C18        96.1330   30.1310   72.3250 C.ar      1 BAX         0.0000 
      9 C19        95.6740   28.9120   71.8440 C.ar      1 BAX         0.0000 
     10 C20        95.8410   28.5680   70.5010 C.ar      1 BAX         0.0000 
     11 C21        96.4710   29.4310   69.6120 C.ar      1 BAX         0.0000 
     12 O22        95.0620   28.0390   72.7080 O.3       1 BAX         0.0000 
     13 C24        92.6430   28.7190   72.0820 C.ar      1 BAX         0.0000 
     14 C25        91.3230   28.2700   72.0590 C.ar      1 BAX         0.0000 
     15 C27        92.0960   26.0980   73.0070 C.ar      1 BAX         0.0000 
     16 C28        93.3500   26.5660   73.0110 C.ar      1 BAX         0.0000 
     17 N30        90.8040   23.7300   73.1400 N.2       1 BAX         0.0000 
     18 C31        89.8590   23.5480   74.2000 C.3       1 BAX         0.0000 
     19 C5         98.8590   33.0100   62.5450 C.ar      1 BAX         0.0000 
     20 C6         97.5340   32.7970   63.0920 C.ar      1 BAX         0.0000 
     21 C7         96.3730   32.7550   62.3340 C.3       1 BAX         0.0000 
     22 F8         96.1820   33.9020   61.6910 F         1 BAX         0.0000 
     23 F9         96.4840   31.7570   61.4570 F         1 BAX         0.0000 
     24 F10        95.2670   32.5160   63.0470 F         1 BAX         0.0000 
     25 CL11       99.1700   33.2420   60.7940 Cl        1 BAX         0.0000 
     26 N12        98.2940   32.4470   66.6210 N.am      1 BAX         0.0000 
     27 N14        97.6960   31.6230   69.0510 N.am      1 BAX         0.0000 
     28 O15        96.6860   30.9070   67.1450 O.2       1 BAX         0.0000 
     29 C23        93.6740   27.7950   72.5920 C.ar      1 BAX         0.0000 
     30 N26        91.0430   26.9170   72.5320 N.pl3     1 BAX         0.0000 
     31 C29        91.9130   24.6340   73.5250 C.2       1 BAX         0.0000 
     32 O32        92.9960   23.9820   73.7350 O.co2     1 BAX         0.0000 
     33 H1         96.4450   32.4740   64.8950 H         1 BAX         0.0000 
     34 H3        100.6990   32.8800   65.4110 H         1 BAX         0.0000 
     35 H4        100.9860   33.1880   62.9590 H         1 BAX         0.0000 
     36 H17        97.1220   32.0060   71.8470 H         1 BAX         0.0000 
     37 H18        95.9980   30.3870   73.3900 H         1 BAX         0.0000 
     38 H20        95.4670   27.5950   70.1400 H         1 BAX         0.0000 
     39 H21        96.5990   29.1400   68.5560 H         1 BAX         0.0000 
     40 H24        92.9070   29.7310   71.7310 H         1 BAX         0.0000 
     41 H25        90.5110   28.9200   71.6930 H         1 BAX         0.0000 
     42 H28        94.1550   25.9070   73.3770 H         1 BAX         0.0000 
     43 H311       89.0586   22.8716   73.8655 H         1 BAX         0.0000 
     44 H312       89.4256   24.5207   74.4759 H         1 BAX         0.0000 
     45 H313       90.3667   23.1119   75.0730 H         1 BAX         0.0000 
     46 H12        98.6690   33.1669   67.3634 H         1 BAX         0.0000 
     47 H14        98.3061   32.4218   69.4979 H         1 BAX         0.0000 
     48 H48        90.0125   26.5323   72.5197 H         1 BAX         0.0000 
@<TRIPOS>BOND
     1    1    2 ar   
     2    1   20 ar   
     3    1   33 1    
     4    2    3 ar   
     5    2   26 1    
     6    3    4 ar   
     7    3   34 1    
     8    4   19 ar   
     9    4   35 1    
    10    5   26 am   BACKBONE|DICT|INTERRES
    11    5   27 am   BACKBONE|DICT|INTERRES
    12    5   28 2    
    13    6    7 ar   
    14    6   11 ar   
    15    6   27 1    
    16    7    8 ar   
    17    7   36 1    
    18    8    9 ar   
    19    8   37 1    
    20    9   10 ar   
    21    9   12 1    
    22   10   11 ar   
    23   10   38 1    
    24   11   39 1    
    25   12   29 1    
    26   13   14 ar   
    27   13   29 ar   
    28   13   40 1    
    29   14   30 ar   
    30   14   41 1    
    31   15   16 ar   
    32   15   30 ar   
    33   15   31 1    
    34   16   29 ar   
    35   16   42 1    
    36   17   18 1    
    37   17   31 2    
    38   18   43 1    
    39   18   44 1    
    40   18   45 1    
    41   19   20 ar   
    42   19   25 1    
    43   20   21 1    
    44   21   22 1    
    45   21   23 1    
    46   21   24 1    
    47   26   46 1    
    48   27   47 1    
    49   30   48 1    
    50   31   32 1    
@<TRIPOS>SUBSTRUCTURE
     1 BAX         1 GROUP             0       ****    0 ROOT    
@<TRIPOS>MOLECULE
BAX
47   49    1
SMALL
USER_CHARGES


@<TRIPOS>ATOM
      1 C1         97.4390   32.6310   64.4430 C.ar      1 BAX         0.0000 
      2 C2         98.5430   32.6540   65.2530 C.ar      1 BAX         0.0000 
      3 C3         99.8240   32.8580   64.7400 C.ar      1 BAX         0.0000 
      4 C4         99.9800   33.0320   63.3840 C.ar      1 BAX         0.0000 
      5 C13        97.6190   31.4940   67.6390 C.2       1 BAX         0.0000 
      6 C16        96.9410   30.6670   70.0600 C.ar      1 BAX         0.0000 
      7 C17        96.7630   31.0330   71.4700 C.ar      1 BAX         0.0000 
      8 C18        96.1330   30.1310   72.3250 C.ar      1 BAX         0.0000 
      9 C19        95.6740   28.9120   71.8440 C.ar      1 BAX         0.0000 
     10 C20        95.8410   28.5680   70.5010 C.ar      1 BAX         0.0000 
     11 C21        96.4710   29.4310   69.6120 C.ar      1 BAX         0.0000 
     12 O22        95.0620   28.0390   72.7080 O.3       1 BAX         0.0000 
     13 C24        92.6430   28.7190   72.0820 C.ar      1 BAX         0.0000 
     14 C25        91.3230   28.2700   72.0590 C.ar      1 BAX         0.0000 
     15 C27        92.0960   26.0980   73.0070 C.ar      1 BAX         0.0000 
     16 C28        93.3500   26.5660   73.0110 C.ar      1 BAX         0.0000 
     17 N30        90.8040   23.7300   73.1400 N.2       1 BAX         0.0000 
     18 C31        89.8590   23.5480   74.2000 C.3       1 BAX         0.0000 
     19 C5         98.8590   33.0100   62.5450 C.ar      1 BAX         0.0000 
     20 C6         97.5340   32.7970   63.0920 C.ar      1 BAX         0.0000 
     21 C7         96.3730   32.7550   62.3340 C.3       1 BAX         0.0000 
     22 F8         96.1820   33.9020   61.6910 F         1 BAX         0.0000 
     23 F9         96.4840   31.7570   61.4570 F         1 BAX         0.0000 
     24 F10        95.2670   32.5160   63.0470 F         1 BAX         0.0000 
     25 CL11       99.1700   33.2420   60.7940 Cl        1 BAX         0.0000 
     26 N12        98.2940   32.4470   66.6210 N.am      1 BAX         0.0000 
     27 N14        97.6960   31.6230   69.0510 N.am      1 BAX         0.0000 
     28 O15        96.6860   30.9070   67.1450 O.2       1 BAX         0.0000 
     29 C23        93.6740   27.7950   72.5920 C.ar      1 BAX         0.0000 
     30 N26        91.0430   26.9170   72.5320 N.ar      1 BAX         0.0000 
     31 C29        91.9130   24.6340   73.5250 C.2       1 BAX         0.0000 
     32 O32        92.9960   23.9820   73.7350 O.co2     1 BAX         0.0000 
     33 H1         96.4450   32.4740   64.8950 H         1 BAX         0.0000 
     34 H3        100.6990   32.8800   65.4110 H         1 BAX         0.0000 
     35 H4        100.9860   33.1880   62.9590 H         1 BAX         0.0000 
     36 H17        97.1220   32.0060   71.8470 H         1 BAX         0.0000 
     37 H18        95.9980   30.3870   73.3900 H         1 BAX         0.0000 
     38 H20        95.4670   27.5950   70.1400 H         1 BAX         0.0000 
     39 H21        96.5990   29.1400   68.5560 H         1 BAX         0.0000 
     40 H24        92.9070   29.7310   71.7310 H         1 BAX         0.0000 
     41 H25        90.5110   28.9200   71.6930 H         1 BAX         0.0000 
     42 H28        94.1550   25.9070   73.3770 H         1 BAX         0.0000 
     43 H311       89.0586   22.8716   73.8655 H         1 BAX         0.0000 
     44 H312       89.4256   24.5207   74.4759 H         1 BAX         0.0000 
     45 H313       90.3667   23.1119   75.0730 H         1 BAX         0.0000 
     46 H12        98.6690   33.1669   67.3634 H         1 BAX         0.0000 
     47 H14        98.3061   32.4218   69.4979 H         1 BAX         0.0000 
@<TRIPOS>BOND
     1    1    2 ar   
     2    1   20 ar   
     3    1   33 1    
     4    2    3 ar   
     5    2   26 1    
     6    3    4 ar   
     7    3   34 1    
     8    4   19 ar   
     9    4   35 1    
    10    5   26 am   BACKBONE|DICT|INTERRES
    11    5   27 am   BACKBONE|DICT|INTERRES
    12    5   28 2    
    13    6    7 ar   
    14    6   11 ar   
    15    6   27 1    
    16    7    8 ar   
    17    7   36 1    
    18    8    9 ar   
    19    8   37 1    
    20    9   10 ar   
    21    9   12 1    
    22   10   11 ar   
    23   10   38 1    
    24   11   39 1    
    25   12   29 1    
    26   13   14 ar   
    27   13   29 ar   
    28   13   40 1    
    29   14   30 ar   
    30   14   41 1    
    31   15   16 ar   
    32   15   30 ar   
    33   15   31 1    
    34   16   29 ar   
    35   16   42 1    
    36   17   18 1    
    37   17   31 2    
    38   18   43 1    
    39   18   44 1    
    40   18   45 1    
    41   19   20 ar   
    42   19   25 1    
    43   20   21 1    
    44   21   22 1    
    45   21   23 1    
    46   21   24 1    
    47   26   46 1    
    48   27   47 1    
    49   31   32 1    
@<TRIPOS>SUBSTRUCTURE
     1 BAX         1 GROUP             0       ****    0 ROOT    
