@<TRIPOS>MOLECULE
4MK
75   78    1
SMALL
USER_CHARGES


@<TRIPOS>ATOM
      1 C1        -27.8260    8.7850   -7.1560 C.3       1 4MK         0.0000 
      2 C2        -26.6010    7.8280   -7.1320 C.3       1 4MK         0.0000 
      3 C3        -26.8650    6.5500   -7.9830 C.3       1 4MK         0.0000 
      4 O4        -25.4870    8.5920   -7.6500 O.3       1 4MK         0.0000 
      5 C5        -24.1230    8.2730   -7.5080 C.ar      1 4MK         0.0000 
      6 C6        -23.6270    7.2280   -6.7040 C.ar      1 4MK         0.0000 
      7 C7        -22.2450    6.9710   -6.5660 C.ar      1 4MK         0.0000 
      8 C8        -21.7800    5.7880   -5.6670 C.3       1 4MK         0.0000 
      9 C9        -22.5470    5.6270   -4.3120 C.3       1 4MK         0.0000 
     10 C10       -21.9580    4.4250   -3.5020 C.3       1 4MK         0.0000 
     11 N11       -21.9330    3.1980   -4.3490 N.4       1 4MK         0.0000 
     12 C12       -21.1750    3.2740   -5.6310 C.3       1 4MK         0.0000 
     13 C13       -21.7210    4.4570   -6.4900 C.3       1 4MK         0.0000 
     14 C14       -21.3350    7.7610   -7.3130 C.ar      1 4MK         0.0000 
     15 C15       -19.8020    7.5940   -7.2480 C.3       1 4MK         0.0000 
     16 C16       -21.8430    8.7800   -8.1450 C.ar      1 4MK         0.0000 
     17 C17       -23.2250    9.0640   -8.2320 C.ar      1 4MK         0.0000 
     18 N18       -23.7730   10.0520   -9.0150 N.pl3     1 4MK         0.0000 
     19 C19       -23.1950   11.2120   -9.4020 C.ar      1 4MK         0.0000 
     20 N20       -23.7330   12.0060  -10.3610 N.ar      1 4MK         0.0000 
     21 C21       -23.0750   13.1070  -10.7830 C.ar      1 4MK         0.0000 
     22 C22       -21.8610   13.4650  -10.1760 C.ar      1 4MK         0.0000 
     23 CL1       -21.0310   14.9090  -10.6640 Cl        1 4MK         0.0000 
     24 C24       -21.3470   12.6810   -9.1410 C.ar      1 4MK         0.0000 
     25 N25       -20.1650   12.9820   -8.5220 N.pl3     1 4MK         0.0000 
     26 C26       -19.5070   12.2680   -7.5370 C.ar      1 4MK         0.0000 
     27 C27       -20.2020   11.4350   -6.6220 C.ar      1 4MK         0.0000 
     28 C28       -19.5380   10.7450   -5.5920 C.ar      1 4MK         0.0000 
     29 C29       -18.1570   10.8990   -5.4210 C.ar      1 4MK         0.0000 
     30 C30       -17.4580   11.7640   -6.2750 C.ar      1 4MK         0.0000 
     31 C31       -18.1010   12.4280   -7.3470 C.ar      1 4MK         0.0000 
     32 S32       -17.1110   13.5470   -8.3390 S.o2      1 4MK         0.0000 
     33 O33       -17.9420   14.5970   -8.9150 O.2       1 4MK         0.0000 
     34 O34       -16.0350   14.0540   -7.4940 O.2       1 4MK         0.0000 
     35 C35       -16.4330   12.5510   -9.6970 C.3       1 4MK         0.0000 
     36 C36       -15.3000   11.6340   -9.1600 C.3       1 4MK         0.0000 
     37 C37       -17.5050   11.7990  -10.5280 C.3       1 4MK         0.0000 
     38 N38       -22.0520   11.5870   -8.8150 N.ar      1 4MK         0.0000 
     39 H1        -27.6079    9.6750   -6.5475 H         1 4MK         0.0000 
     40 H1A       -28.7047    8.2662   -6.7452 H         1 4MK         0.0000 
     41 H1B       -28.0321    9.0909   -8.1923 H         1 4MK         0.0000 
     42 H2        -26.3277    7.5051   -6.1166 H         1 4MK         0.0000 
     43 H3        -25.9817    5.8955   -7.9454 H         1 4MK         0.0000 
     44 H3A       -27.0635    6.8384   -9.0258 H         1 4MK         0.0000 
     45 H3B       -27.7362    6.0137   -7.5786 H         1 4MK         0.0000 
     46 H6        -24.3290    6.6010   -6.1740 H         1 4MK         0.0000 
     47 H8        -20.7619    6.0562   -5.3485 H         1 4MK         0.0000 
     48 H9        -22.4422    6.5480   -3.7197 H         1 4MK         0.0000 
     49 H9A       -23.6121    5.4398   -4.5135 H         1 4MK         0.0000 
     50 H10       -20.9326    4.6645   -3.1840 H         1 4MK         0.0000 
     51 H10A      -22.5826    4.2388   -2.6159 H         1 4MK         0.0000 
     52 HN11      -21.4758    2.3720   -3.7845 H         1 4MK         0.0000 
     53 H12       -20.1085    3.4382   -5.4172 H         1 4MK         0.0000 
     54 H12A      -21.2969    2.3318   -6.1855 H         1 4MK         0.0000 
     55 H13       -22.7313    4.1960   -6.8379 H         1 4MK         0.0000 
     56 H13A      -21.0578    4.5912   -7.3573 H         1 4MK         0.0000 
     57 H15       -19.3249    8.3239   -7.9186 H         1 4MK         0.0000 
     58 H15A      -19.5305    6.5754   -7.5621 H         1 4MK         0.0000 
     59 H15B      -19.4581    7.7638   -6.2170 H         1 4MK         0.0000 
     60 H16       -21.1530    9.3630   -8.7360 H         1 4MK         0.0000 
     61 HN18      -24.7971    9.9430   -9.4013 H         1 4MK         0.0000 
     62 H21       -23.4800   13.7090  -11.5830 H         1 4MK         0.0000 
     63 HN25      -19.6170   13.8953   -8.7971 H         1 4MK         0.0000 
     64 H27       -21.2720   11.3280   -6.7200 H         1 4MK         0.0000 
     65 H28       -20.0940   10.0960   -4.9320 H         1 4MK         0.0000 
     66 H29       -17.6380   10.3590   -4.6430 H         1 4MK         0.0000 
     67 H30       -16.4030   11.9280   -6.1110 H         1 4MK         0.0000 
     68 H35       -15.9489   13.0790  -10.5318 H         1 4MK         0.0000 
     69 H36       -14.8925   11.0327   -9.9861 H         1 4MK         0.0000 
     70 H36A      -15.7050   10.9662   -8.3854 H         1 4MK         0.0000 
     71 H36B      -14.5003   12.2538   -8.7283 H         1 4MK         0.0000 
     72 H37       -17.0131   11.2230  -11.3256 H         1 4MK         0.0000 
     73 H37A      -18.1988   12.5261  -10.9753 H         1 4MK         0.0000 
     74 H37B      -18.0635   11.1146   -9.8725 H         1 4MK         0.0000 
     75 H75       -22.9610    2.9253   -4.6298 H         1 4MK         0.0000 
@<TRIPOS>BOND
     1    1    2 1    
     2    1   39 1    
     3    1   40 1    
     4    1   41 1    
     5    2    3 1    
     6    2    4 1    
     7    2   42 1    
     8    3   43 1    
     9    3   44 1    
    10    3   45 1    
    11    4    5 1    
    12    5    6 ar   
    13    5   17 ar   
    14    6    7 ar   
    15    6   46 1    
    16    7    8 1    
    17    7   14 ar   
    18    8    9 1    
    19    8   13 1    
    20    8   47 1    
    21    9   10 1    
    22    9   48 1    
    23    9   49 1    
    24   10   11 1    
    25   10   50 1    
    26   10   51 1    
    27   11   12 1    
    28   11   52 1    
    29   11   75 1    
    30   12   13 1    
    31   12   53 1    
    32   12   54 1    
    33   13   55 1    
    34   13   56 1    
    35   14   15 1    
    36   14   16 ar   
    37   15   57 1    
    38   15   58 1    
    39   15   59 1    
    40   16   17 ar   
    41   16   60 1    
    42   17   18 1    
    43   18   19 1    
    44   18   61 1    
    45   19   20 ar   
    46   19   38 ar   
    47   20   21 ar   
    48   21   22 ar   
    49   21   62 1    
    50   22   23 1    
    51   22   24 ar   
    52   24   25 1    
    53   24   38 ar   
    54   25   26 1    
    55   25   63 1    
    56   26   27 ar   
    57   26   31 ar   
    58   27   28 ar   
    59   27   64 1    
    60   28   29 ar   
    61   28   65 1    
    62   29   30 ar   
    63   29   66 1    
    64   30   31 ar   
    65   30   67 1    
    66   31   32 1    
    67   32   33 2    
    68   32   34 2    
    69   32   35 1    
    70   35   36 1    
    71   35   37 1    
    72   35   68 1    
    73   36   69 1    
    74   36   70 1    
    75   36   71 1    
    76   37   72 1    
    77   37   73 1    
    78   37   74 1    
@<TRIPOS>SUBSTRUCTURE
     1 4MK         1 GROUP             0       ****    0 ROOT    
@<TRIPOS>MOLECULE
4MK
74   77    1
SMALL
USER_CHARGES


@<TRIPOS>ATOM
      1 C1        -27.8260    8.7850   -7.1560 C.3       1 4MK         0.0000 
      2 C2        -26.6010    7.8280   -7.1320 C.3       1 4MK         0.0000 
      3 C3        -26.8650    6.5500   -7.9830 C.3       1 4MK         0.0000 
      4 O4        -25.4870    8.5920   -7.6500 O.3       1 4MK         0.0000 
      5 C5        -24.1230    8.2730   -7.5080 C.ar      1 4MK         0.0000 
      6 C6        -23.6270    7.2280   -6.7040 C.ar      1 4MK         0.0000 
      7 C7        -22.2450    6.9710   -6.5660 C.ar      1 4MK         0.0000 
      8 C8        -21.7800    5.7880   -5.6670 C.3       1 4MK         0.0000 
      9 C9        -22.5470    5.6270   -4.3120 C.3       1 4MK         0.0000 
     10 C10       -21.9580    4.4250   -3.5020 C.3       1 4MK         0.0000 
     11 N11       -21.9330    3.1980   -4.3490 N.3       1 4MK         0.0000 
     12 C12       -21.1750    3.2740   -5.6310 C.3       1 4MK         0.0000 
     13 C13       -21.7210    4.4570   -6.4900 C.3       1 4MK         0.0000 
     14 C14       -21.3350    7.7610   -7.3130 C.ar      1 4MK         0.0000 
     15 C15       -19.8020    7.5940   -7.2480 C.3       1 4MK         0.0000 
     16 C16       -21.8430    8.7800   -8.1450 C.ar      1 4MK         0.0000 
     17 C17       -23.2250    9.0640   -8.2320 C.ar      1 4MK         0.0000 
     18 N18       -23.7730   10.0520   -9.0150 N.pl3     1 4MK         0.0000 
     19 C19       -23.1950   11.2120   -9.4020 C.ar      1 4MK         0.0000 
     20 N20       -23.7330   12.0060  -10.3610 N.ar      1 4MK         0.0000 
     21 C21       -23.0750   13.1070  -10.7830 C.ar      1 4MK         0.0000 
     22 C22       -21.8610   13.4650  -10.1760 C.ar      1 4MK         0.0000 
     23 CL1       -21.0310   14.9090  -10.6640 Cl        1 4MK         0.0000 
     24 C24       -21.3470   12.6810   -9.1410 C.ar      1 4MK         0.0000 
     25 N25       -20.1650   12.9820   -8.5220 N.pl3     1 4MK         0.0000 
     26 C26       -19.5070   12.2680   -7.5370 C.ar      1 4MK         0.0000 
     27 C27       -20.2020   11.4350   -6.6220 C.ar      1 4MK         0.0000 
     28 C28       -19.5380   10.7450   -5.5920 C.ar      1 4MK         0.0000 
     29 C29       -18.1570   10.8990   -5.4210 C.ar      1 4MK         0.0000 
     30 C30       -17.4580   11.7640   -6.2750 C.ar      1 4MK         0.0000 
     31 C31       -18.1010   12.4280   -7.3470 C.ar      1 4MK         0.0000 
     32 S32       -17.1110   13.5470   -8.3390 S.o2      1 4MK         0.0000 
     33 O33       -17.9420   14.5970   -8.9150 O.2       1 4MK         0.0000 
     34 O34       -16.0350   14.0540   -7.4940 O.2       1 4MK         0.0000 
     35 C35       -16.4330   12.5510   -9.6970 C.3       1 4MK         0.0000 
     36 C36       -15.3000   11.6340   -9.1600 C.3       1 4MK         0.0000 
     37 C37       -17.5050   11.7990  -10.5280 C.3       1 4MK         0.0000 
     38 N38       -22.0520   11.5870   -8.8150 N.ar      1 4MK         0.0000 
     39 H1        -27.6079    9.6750   -6.5475 H         1 4MK         0.0000 
     40 H1A       -28.7047    8.2662   -6.7452 H         1 4MK         0.0000 
     41 H1B       -28.0321    9.0909   -8.1923 H         1 4MK         0.0000 
     42 H2        -26.3277    7.5051   -6.1166 H         1 4MK         0.0000 
     43 H3        -25.9817    5.8955   -7.9454 H         1 4MK         0.0000 
     44 H3A       -27.0635    6.8384   -9.0258 H         1 4MK         0.0000 
     45 H3B       -27.7362    6.0137   -7.5786 H         1 4MK         0.0000 
     46 H6        -24.3290    6.6010   -6.1740 H         1 4MK         0.0000 
     47 H8        -20.7619    6.0562   -5.3485 H         1 4MK         0.0000 
     48 H9        -22.4422    6.5480   -3.7197 H         1 4MK         0.0000 
     49 H9A       -23.6121    5.4398   -4.5135 H         1 4MK         0.0000 
     50 H10       -20.9326    4.6645   -3.1840 H         1 4MK         0.0000 
     51 H10A      -22.5826    4.2388   -2.6159 H         1 4MK         0.0000 
     52 HN11      -21.4758    2.3720   -3.7845 H         1 4MK         0.0000 
     53 H12       -20.1085    3.4382   -5.4172 H         1 4MK         0.0000 
     54 H12A      -21.2969    2.3318   -6.1855 H         1 4MK         0.0000 
     55 H13       -22.7313    4.1960   -6.8379 H         1 4MK         0.0000 
     56 H13A      -21.0578    4.5912   -7.3573 H         1 4MK         0.0000 
     57 H15       -19.3249    8.3239   -7.9186 H         1 4MK         0.0000 
     58 H15A      -19.5305    6.5754   -7.5621 H         1 4MK         0.0000 
     59 H15B      -19.4581    7.7638   -6.2170 H         1 4MK         0.0000 
     60 H16       -21.1530    9.3630   -8.7360 H         1 4MK         0.0000 
     61 HN18      -24.7971    9.9430   -9.4013 H         1 4MK         0.0000 
     62 H21       -23.4800   13.7090  -11.5830 H         1 4MK         0.0000 
     63 HN25      -19.6170   13.8953   -8.7971 H         1 4MK         0.0000 
     64 H27       -21.2720   11.3280   -6.7200 H         1 4MK         0.0000 
     65 H28       -20.0940   10.0960   -4.9320 H         1 4MK         0.0000 
     66 H29       -17.6380   10.3590   -4.6430 H         1 4MK         0.0000 
     67 H30       -16.4030   11.9280   -6.1110 H         1 4MK         0.0000 
     68 H35       -15.9489   13.0790  -10.5318 H         1 4MK         0.0000 
     69 H36       -14.8925   11.0327   -9.9861 H         1 4MK         0.0000 
     70 H36A      -15.7050   10.9662   -8.3854 H         1 4MK         0.0000 
     71 H36B      -14.5003   12.2538   -8.7283 H         1 4MK         0.0000 
     72 H37       -17.0131   11.2230  -11.3256 H         1 4MK         0.0000 
     73 H37A      -18.1988   12.5261  -10.9753 H         1 4MK         0.0000 
     74 H37B      -18.0635   11.1146   -9.8725 H         1 4MK         0.0000 
@<TRIPOS>BOND
     1    1    2 1    
     2    1   39 1    
     3    1   40 1    
     4    1   41 1    
     5    2    3 1    
     6    2    4 1    
     7    2   42 1    
     8    3   43 1    
     9    3   44 1    
    10    3   45 1    
    11    4    5 1    
    12    5    6 ar   
    13    5   17 ar   
    14    6    7 ar   
    15    6   46 1    
    16    7    8 1    
    17    7   14 ar   
    18    8    9 1    
    19    8   13 1    
    20    8   47 1    
    21    9   10 1    
    22    9   48 1    
    23    9   49 1    
    24   10   11 1    
    25   10   50 1    
    26   10   51 1    
    27   11   12 1    
    28   11   52 1    
    29   12   13 1    
    30   12   53 1    
    31   12   54 1    
    32   13   55 1    
    33   13   56 1    
    34   14   15 1    
    35   14   16 ar   
    36   15   57 1    
    37   15   58 1    
    38   15   59 1    
    39   16   17 ar   
    40   16   60 1    
    41   17   18 1    
    42   18   19 1    
    43   18   61 1    
    44   19   20 ar   
    45   19   38 ar   
    46   20   21 ar   
    47   21   22 ar   
    48   21   62 1    
    49   22   23 1    
    50   22   24 ar   
    51   24   25 1    
    52   24   38 ar   
    53   25   26 1    
    54   25   63 1    
    55   26   27 ar   
    56   26   31 ar   
    57   27   28 ar   
    58   27   64 1    
    59   28   29 ar   
    60   28   65 1    
    61   29   30 ar   
    62   29   66 1    
    63   30   31 ar   
    64   30   67 1    
    65   31   32 1    
    66   32   33 2    
    67   32   34 2    
    68   32   35 1    
    69   35   36 1    
    70   35   37 1    
    71   35   68 1    
    72   36   69 1    
    73   36   70 1    
    74   36   71 1    
    75   37   72 1    
    76   37   73 1    
    77   37   74 1    
@<TRIPOS>SUBSTRUCTURE
     1 4MK         1 GROUP             0       ****    0 ROOT    
@<TRIPOS>MOLECULE
4MK
76   79    1
SMALL
USER_CHARGES


@<TRIPOS>ATOM
      1 C1        -27.8260    8.7850   -7.1560 C.3       1 4MK         0.0000 
      2 C2        -26.6010    7.8280   -7.1320 C.3       1 4MK         0.0000 
      3 C3        -26.8650    6.5500   -7.9830 C.3       1 4MK         0.0000 
      4 O4        -25.4870    8.5920   -7.6500 O.3       1 4MK         0.0000 
      5 C5        -24.1230    8.2730   -7.5080 C.ar      1 4MK         0.0000 
      6 C6        -23.6270    7.2280   -6.7040 C.ar      1 4MK         0.0000 
      7 C7        -22.2450    6.9710   -6.5660 C.ar      1 4MK         0.0000 
      8 C8        -21.7800    5.7880   -5.6670 C.3       1 4MK         0.0000 
      9 C9        -22.5470    5.6270   -4.3120 C.3       1 4MK         0.0000 
     10 C10       -21.9580    4.4250   -3.5020 C.3       1 4MK         0.0000 
     11 N11       -21.9330    3.1980   -4.3490 N.4       1 4MK         0.0000 
     12 C12       -21.1750    3.2740   -5.6310 C.3       1 4MK         0.0000 
     13 C13       -21.7210    4.4570   -6.4900 C.3       1 4MK         0.0000 
     14 C14       -21.3350    7.7610   -7.3130 C.ar      1 4MK         0.0000 
     15 C15       -19.8020    7.5940   -7.2480 C.3       1 4MK         0.0000 
     16 C16       -21.8430    8.7800   -8.1450 C.ar      1 4MK         0.0000 
     17 C17       -23.2250    9.0640   -8.2320 C.ar      1 4MK         0.0000 
     18 N18       -23.7730   10.0520   -9.0150 N.pl3     1 4MK         0.0000 
     19 C19       -23.1950   11.2120   -9.4020 C.ar      1 4MK         0.0000 
     20 N20       -23.7330   12.0060  -10.3610 N.pl3     1 4MK         0.0000 
     21 C21       -23.0750   13.1070  -10.7830 C.ar      1 4MK         0.0000 
     22 C22       -21.8610   13.4650  -10.1760 C.ar      1 4MK         0.0000 
     23 CL1       -21.0310   14.9090  -10.6640 Cl        1 4MK         0.0000 
     24 C24       -21.3470   12.6810   -9.1410 C.ar      1 4MK         0.0000 
     25 N25       -20.1650   12.9820   -8.5220 N.pl3     1 4MK         0.0000 
     26 C26       -19.5070   12.2680   -7.5370 C.ar      1 4MK         0.0000 
     27 C27       -20.2020   11.4350   -6.6220 C.ar      1 4MK         0.0000 
     28 C28       -19.5380   10.7450   -5.5920 C.ar      1 4MK         0.0000 
     29 C29       -18.1570   10.8990   -5.4210 C.ar      1 4MK         0.0000 
     30 C30       -17.4580   11.7640   -6.2750 C.ar      1 4MK         0.0000 
     31 C31       -18.1010   12.4280   -7.3470 C.ar      1 4MK         0.0000 
     32 S32       -17.1110   13.5470   -8.3390 S.o2      1 4MK         0.0000 
     33 O33       -17.9420   14.5970   -8.9150 O.2       1 4MK         0.0000 
     34 O34       -16.0350   14.0540   -7.4940 O.2       1 4MK         0.0000 
     35 C35       -16.4330   12.5510   -9.6970 C.3       1 4MK         0.0000 
     36 C36       -15.3000   11.6340   -9.1600 C.3       1 4MK         0.0000 
     37 C37       -17.5050   11.7990  -10.5280 C.3       1 4MK         0.0000 
     38 N38       -22.0520   11.5870   -8.8150 N.ar      1 4MK         0.0000 
     39 H1        -27.6079    9.6750   -6.5475 H         1 4MK         0.0000 
     40 H1A       -28.7047    8.2662   -6.7452 H         1 4MK         0.0000 
     41 H1B       -28.0321    9.0909   -8.1923 H         1 4MK         0.0000 
     42 H2        -26.3277    7.5051   -6.1166 H         1 4MK         0.0000 
     43 H3        -25.9817    5.8955   -7.9454 H         1 4MK         0.0000 
     44 H3A       -27.0635    6.8384   -9.0258 H         1 4MK         0.0000 
     45 H3B       -27.7362    6.0137   -7.5786 H         1 4MK         0.0000 
     46 H6        -24.3290    6.6010   -6.1740 H         1 4MK         0.0000 
     47 H8        -20.7619    6.0562   -5.3485 H         1 4MK         0.0000 
     48 H9        -22.4422    6.5480   -3.7197 H         1 4MK         0.0000 
     49 H9A       -23.6121    5.4398   -4.5135 H         1 4MK         0.0000 
     50 H10       -20.9326    4.6645   -3.1840 H         1 4MK         0.0000 
     51 H10A      -22.5826    4.2388   -2.6159 H         1 4MK         0.0000 
     52 HN11      -21.4758    2.3720   -3.7845 H         1 4MK         0.0000 
     53 H12       -20.1085    3.4382   -5.4172 H         1 4MK         0.0000 
     54 H12A      -21.2969    2.3318   -6.1855 H         1 4MK         0.0000 
     55 H13       -22.7313    4.1960   -6.8379 H         1 4MK         0.0000 
     56 H13A      -21.0578    4.5912   -7.3573 H         1 4MK         0.0000 
     57 H15       -19.3249    8.3239   -7.9186 H         1 4MK         0.0000 
     58 H15A      -19.5305    6.5754   -7.5621 H         1 4MK         0.0000 
     59 H15B      -19.4581    7.7638   -6.2170 H         1 4MK         0.0000 
     60 H16       -21.1530    9.3630   -8.7360 H         1 4MK         0.0000 
     61 HN18      -24.7971    9.9430   -9.4013 H         1 4MK         0.0000 
     62 H21       -23.4800   13.7090  -11.5830 H         1 4MK         0.0000 
     63 HN25      -19.6170   13.8953   -8.7971 H         1 4MK         0.0000 
     64 H27       -21.2720   11.3280   -6.7200 H         1 4MK         0.0000 
     65 H28       -20.0940   10.0960   -4.9320 H         1 4MK         0.0000 
     66 H29       -17.6380   10.3590   -4.6430 H         1 4MK         0.0000 
     67 H30       -16.4030   11.9280   -6.1110 H         1 4MK         0.0000 
     68 H35       -15.9489   13.0790  -10.5318 H         1 4MK         0.0000 
     69 H36       -14.8925   11.0327   -9.9861 H         1 4MK         0.0000 
     70 H36A      -15.7050   10.9662   -8.3854 H         1 4MK         0.0000 
     71 H36B      -14.5003   12.2538   -8.7283 H         1 4MK         0.0000 
     72 H37       -17.0131   11.2230  -11.3256 H         1 4MK         0.0000 
     73 H37A      -18.1988   12.5261  -10.9753 H         1 4MK         0.0000 
     74 H37B      -18.0635   11.1146   -9.8725 H         1 4MK         0.0000 
     75 H75       -22.9610    2.9253   -4.6298 H         1 4MK         0.0000 
     76 H76       -24.7101   11.7543  -10.7991 H         1 4MK         0.0000 
@<TRIPOS>BOND
     1    1    2 1    
     2    1   39 1    
     3    1   40 1    
     4    1   41 1    
     5    2    3 1    
     6    2    4 1    
     7    2   42 1    
     8    3   43 1    
     9    3   44 1    
    10    3   45 1    
    11    4    5 1    
    12    5    6 ar   
    13    5   17 ar   
    14    6    7 ar   
    15    6   46 1    
    16    7    8 1    
    17    7   14 ar   
    18    8    9 1    
    19    8   13 1    
    20    8   47 1    
    21    9   10 1    
    22    9   48 1    
    23    9   49 1    
    24   10   11 1    
    25   10   50 1    
    26   10   51 1    
    27   11   12 1    
    28   11   52 1    
    29   11   75 1    
    30   12   13 1    
    31   12   53 1    
    32   12   54 1    
    33   13   55 1    
    34   13   56 1    
    35   14   15 1    
    36   14   16 ar   
    37   15   57 1    
    38   15   58 1    
    39   15   59 1    
    40   16   17 ar   
    41   16   60 1    
    42   17   18 1    
    43   18   19 1    
    44   18   61 1    
    45   19   20 ar   
    46   19   38 ar   
    47   20   21 ar   
    48   20   76 1    
    49   21   22 ar   
    50   21   62 1    
    51   22   23 1    
    52   22   24 ar   
    53   24   25 1    
    54   24   38 ar   
    55   25   26 1    
    56   25   63 1    
    57   26   27 ar   
    58   26   31 ar   
    59   27   28 ar   
    60   27   64 1    
    61   28   29 ar   
    62   28   65 1    
    63   29   30 ar   
    64   29   66 1    
    65   30   31 ar   
    66   30   67 1    
    67   31   32 1    
    68   32   33 2    
    69   32   34 2    
    70   32   35 1    
    71   35   36 1    
    72   35   37 1    
    73   35   68 1    
    74   36   69 1    
    75   36   70 1    
    76   36   71 1    
    77   37   72 1    
    78   37   73 1    
    79   37   74 1    
@<TRIPOS>SUBSTRUCTURE
     1 4MK         1 GROUP             0       ****    0 ROOT    
