@<TRIPOS>MOLECULE
MI1
43   45    1
SMALL
USER_CHARGES


@<TRIPOS>ATOM
      1 C1         11.4000   14.0760  -15.3490 C.3       1 MI1         0.0000 
      2 C2         11.1110   14.1980  -16.8320 C.3       1 MI1         0.0000 
      3 C4         10.0430   11.9040  -16.9620 C.3       1 MI1         0.0000 
      4 C5         10.5440   11.6320  -15.5380 C.3       1 MI1         0.0000 
      5 C6         11.7130   12.5520  -15.1220 C.3       1 MI1         0.0000 
      6 N3          9.9090   13.3800  -17.0700 N.am      1 MI1         0.0000 
      7 O21         8.6640   15.1600  -17.5640 O.2       1 MI1         0.0000 
      8 C20         8.7790   13.9460  -17.4370 C.2       1 MI1         0.0000 
      9 C22         7.5860   13.0420  -17.6590 C.3       1 MI1         0.0000 
     10 C23         6.4020   13.8860  -17.8860 C.1       1 MI1         0.0000 
     11 N24         5.4400   14.5060  -18.0770 N.1       1 MI1         0.0000 
     12 C7         13.0070   11.9550  -15.7290 C.3       1 MI1         0.0000 
     13 N8         12.6080   14.8790  -14.9290 N.pl3     1 MI1         0.0000 
     14 C9         13.6000   15.3730  -15.8880 C.3       1 MI1         0.0000 
     15 C10        12.8720   15.1980  -13.6120 C.ar      1 MI1         0.0000 
     16 C15        12.0370   14.7960  -12.5530 C.ar      1 MI1         0.0000 
     17 C16        10.7790   14.0680  -12.4890 C.ar      1 MI1         0.0000 
     18 C11        10.5020   14.0170  -11.1370 C.ar      1 MI1         0.0000 
     19 N12        11.4780   14.6740  -10.4210 N.pl3     1 MI1         0.0000 
     20 C14        12.4150   15.1380  -11.2680 C.ar      1 MI1         0.0000 
     21 N17        13.5300   15.8160  -10.9460 N.ar      1 MI1         0.0000 
     22 C18        14.3090   16.1740  -12.0020 C.ar      1 MI1         0.0000 
     23 N19        14.0160   15.9020  -13.3080 N.ar      1 MI1         0.0000 
     24 H1         10.5556   14.4866  -14.7760 H         1 MI1         0.0000 
     25 H2         10.9341   15.2537  -17.0854 H         1 MI1         0.0000 
     26 H2A        11.9714   13.8225  -17.4054 H         1 MI1         0.0000 
     27 H4         10.7727   11.5157  -17.6878 H         1 MI1         0.0000 
     28 H4A         9.0749   11.4037  -17.1119 H         1 MI1         0.0000 
     29 H5          9.7230   11.7921  -14.8236 H         1 MI1         0.0000 
     30 H5A        10.8957   10.5923  -15.4653 H         1 MI1         0.0000 
     31 H6         11.8766   12.5459  -14.0343 H         1 MI1         0.0000 
     32 H22         7.7678   12.4037  -18.5362 H         1 MI1         0.0000 
     33 H22A        7.4342   12.4105  -16.7712 H         1 MI1         0.0000 
     34 H7         13.0708   10.8861  -15.4773 H         1 MI1         0.0000 
     35 H7A        13.8813   12.4813  -15.3184 H         1 MI1         0.0000 
     36 H7B        12.9878   12.0737  -16.8224 H         1 MI1         0.0000 
     37 H9         14.3840   15.9276  -15.3516 H         1 MI1         0.0000 
     38 H9A        13.1094   16.0398  -16.6123 H         1 MI1         0.0000 
     39 H9B        14.0511   14.5223  -16.4198 H         1 MI1         0.0000 
     40 H16        10.1990   13.6630  -13.3050 H         1 MI1         0.0000 
     41 H11         9.6410   13.5300  -10.7020 H         1 MI1         0.0000 
     42 H18        15.2230   16.7110  -11.7930 H         1 MI1         0.0000 
     43 HN12       11.4014   14.7475   -9.3261 H         1 MI1         0.0000 
@<TRIPOS>BOND
     1    1    5 1    
     2    1   13 1    
     3    1   24 1    
     4    1    2 1    
     5    2   25 1    
     6    2   26 1    
     7    2    6 1    
     8    3    4 1    
     9    3   27 1    
    10    3   28 1    
    11    3    6 1    
    12    4    5 1    
    13    4   29 1    
    14    4   30 1    
    15    5   31 1    
    16    5   12 1    
    17    6    8 am   BACKBONE|DICT|INTERRES
    18    7    8 2    
    19    8    9 1    
    20    9   32 1    
    21    9   33 1    
    22    9   10 1    
    23   10   11 3    
    24   12   34 1    
    25   12   35 1    
    26   12   36 1    
    27   13   15 1    
    28   13   14 1    
    29   14   37 1    
    30   14   38 1    
    31   14   39 1    
    32   15   23 ar   
    33   15   16 ar   
    34   16   17 ar   
    35   16   20 ar   
    36   17   18 ar   
    37   17   40 1    
    38   18   19 ar   
    39   18   41 1    
    40   19   43 1    
    41   19   20 ar   
    42   20   21 ar   
    43   21   22 ar   
    44   22   42 1    
    45   22   23 ar   
@<TRIPOS>SUBSTRUCTURE
     1 MI1         1 GROUP             0       ****    0 ROOT    
@<TRIPOS>MOLECULE
MI1
44   46    1
SMALL
USER_CHARGES


@<TRIPOS>ATOM
      1 C1         11.4000   14.0760  -15.3490 C.3       1 MI1         0.0000 
      2 C2         11.1110   14.1980  -16.8320 C.3       1 MI1         0.0000 
      3 C4         10.0430   11.9040  -16.9620 C.3       1 MI1         0.0000 
      4 C5         10.5440   11.6320  -15.5380 C.3       1 MI1         0.0000 
      5 C6         11.7130   12.5520  -15.1220 C.3       1 MI1         0.0000 
      6 N3          9.9090   13.3800  -17.0700 N.am      1 MI1         0.0000 
      7 O21         8.6640   15.1600  -17.5640 O.2       1 MI1         0.0000 
      8 C20         8.7790   13.9460  -17.4370 C.2       1 MI1         0.0000 
      9 C22         7.5860   13.0420  -17.6590 C.3       1 MI1         0.0000 
     10 C23         6.4020   13.8860  -17.8860 C.1       1 MI1         0.0000 
     11 N24         5.4400   14.5060  -18.0770 N.1       1 MI1         0.0000 
     12 C7         13.0070   11.9550  -15.7290 C.3       1 MI1         0.0000 
     13 N8         12.6080   14.8790  -14.9290 N.pl3     1 MI1         0.0000 
     14 C9         13.6000   15.3730  -15.8880 C.3       1 MI1         0.0000 
     15 C10        12.8720   15.1980  -13.6120 C.ar      1 MI1         0.0000 
     16 C15        12.0370   14.7960  -12.5530 C.ar      1 MI1         0.0000 
     17 C16        10.7790   14.0680  -12.4890 C.ar      1 MI1         0.0000 
     18 C11        10.5020   14.0170  -11.1370 C.ar      1 MI1         0.0000 
     19 N12        11.4780   14.6740  -10.4210 N.pl3     1 MI1         0.0000 
     20 C14        12.4150   15.1380  -11.2680 C.ar      1 MI1         0.0000 
     21 N17        13.5300   15.8160  -10.9460 N.ar      1 MI1         0.0000 
     22 C18        14.3090   16.1740  -12.0020 C.ar      1 MI1         0.0000 
     23 N19        14.0160   15.9020  -13.3080 N.pl3     1 MI1         0.0000 
     24 H1         10.5556   14.4866  -14.7760 H         1 MI1         0.0000 
     25 H2         10.9341   15.2537  -17.0854 H         1 MI1         0.0000 
     26 H2A        11.9714   13.8225  -17.4054 H         1 MI1         0.0000 
     27 H4         10.7727   11.5157  -17.6878 H         1 MI1         0.0000 
     28 H4A         9.0749   11.4037  -17.1119 H         1 MI1         0.0000 
     29 H5          9.7230   11.7921  -14.8236 H         1 MI1         0.0000 
     30 H5A        10.8957   10.5923  -15.4653 H         1 MI1         0.0000 
     31 H6         11.8766   12.5459  -14.0343 H         1 MI1         0.0000 
     32 H22         7.7678   12.4037  -18.5362 H         1 MI1         0.0000 
     33 H22A        7.4342   12.4105  -16.7712 H         1 MI1         0.0000 
     34 H7         13.0708   10.8861  -15.4773 H         1 MI1         0.0000 
     35 H7A        13.8813   12.4813  -15.3184 H         1 MI1         0.0000 
     36 H7B        12.9878   12.0737  -16.8224 H         1 MI1         0.0000 
     37 H9         14.3840   15.9276  -15.3516 H         1 MI1         0.0000 
     38 H9A        13.1094   16.0398  -16.6123 H         1 MI1         0.0000 
     39 H9B        14.0511   14.5223  -16.4198 H         1 MI1         0.0000 
     40 H16        10.1990   13.6630  -13.3050 H         1 MI1         0.0000 
     41 H11         9.6410   13.5300  -10.7020 H         1 MI1         0.0000 
     42 H18        15.2230   16.7110  -11.7930 H         1 MI1         0.0000 
     43 HN12       11.4014   14.7475   -9.3261 H         1 MI1         0.0000 
     44 H44        14.6843   16.2399  -14.1137 H         1 MI1         0.0000 
@<TRIPOS>BOND
     1    1    5 1    
     2    1   13 1    
     3    1   24 1    
     4    1    2 1    
     5    2   25 1    
     6    2   26 1    
     7    2    6 1    
     8    3    4 1    
     9    3   27 1    
    10    3   28 1    
    11    3    6 1    
    12    4    5 1    
    13    4   29 1    
    14    4   30 1    
    15    5   31 1    
    16    5   12 1    
    17    6    8 am   BACKBONE|DICT|INTERRES
    18    7    8 2    
    19    8    9 1    
    20    9   32 1    
    21    9   33 1    
    22    9   10 1    
    23   10   11 3    
    24   12   34 1    
    25   12   35 1    
    26   12   36 1    
    27   13   15 1    
    28   13   14 1    
    29   14   37 1    
    30   14   38 1    
    31   14   39 1    
    32   15   23 ar   
    33   15   16 ar   
    34   16   17 ar   
    35   16   20 ar   
    36   17   18 ar   
    37   17   40 1    
    38   18   19 ar   
    39   18   41 1    
    40   19   43 1    
    41   19   20 ar   
    42   20   21 ar   
    43   21   22 ar   
    44   22   42 1    
    45   22   23 ar   
    46   23   44 1    
@<TRIPOS>SUBSTRUCTURE
     1 MI1         1 GROUP             0       ****    0 ROOT    
