@<TRIPOS>MOLECULE
~{N}-(3-chloro-4-fluoro-phenyl)-7-methoxy-6-(3-morpholinopropoxy)quinazolin-4-amine
   55    58     1     0     0
SMALL
USER_CHARGES

@<TRIPOS>ATOM
      1 CAO       -45.4800   -2.7160  -15.7450 C.3       1 IRE         0.1370
      2 CAL       -44.4060   -3.5920  -15.0750 C.3       1 IRE         0.1243
      3 OAU       -43.4570   -4.0220  -16.1080 O.3       1 IRE        -0.4144
      4 CAM       -44.0750   -4.8660  -17.1340 C.3       1 IRE         0.1243
      5 CAP       -45.2550   -4.1730  -17.8460 C.3       1 IRE         0.1370
      6 NBE       -46.1310   -3.3930  -16.9140 N.3       1 IRE        -0.7358
      7 CAN       -46.7510   -2.3190  -17.7170 C.3       1 IRE         0.1820
      8 CAJ       -48.2760   -2.4690  -17.8210 C.3       1 IRE        -0.0916
      9 CAK       -48.8310   -1.4830  -18.8750 C.3       1 IRE         0.1313
     10 OAV       -49.1940   -0.1540  -18.3610 O.3       1 IRE        -0.3294
     11 CBA       -50.2350    0.4780  -19.0000 C.ar      1 IRE         0.0904
     12 CAZ       -51.1310    1.2010  -18.2160 C.ar      1 IRE         0.1148
     13 CAH       -52.1950    1.8590  -18.8390 C.ar      1 IRE        -0.1843
     14 OAT       -50.9480    1.2280  -16.8510 O.3       1 IRE        -0.3338
     15 CAA       -51.1650    2.4870  -16.1950 C.3       1 IRE         0.1179
     16 CAI       -50.3990    0.4370  -20.3940 C.ar      1 IRE        -0.1396
     17 C5        -51.4580    1.1010  -21.0030 C.ar      1 IRE        -0.2793
     18 C4        -52.3520    1.8070  -20.2220 C.ar      1 IRE         0.4331
     19 N3        -53.3700    2.4460  -20.8190 N.ar      1 IRE        -0.7038
     20 C2        -53.5590    2.4110  -22.1310 C.ar      1 IRE         0.6645
     21 N1        -52.7310    1.7450  -22.9050 N.ar      1 IRE        -0.7503
     22 C6        -51.6810    1.0850  -22.3780 C.ar      1 IRE         0.7087
     23 NAS       -50.8760    0.4060  -23.1830 N.pl3     1 IRE        -0.7654
     24 CAY       -50.9780    0.4720  -24.5090 C.ar      1 IRE         0.1690
     25 CAG       -50.9250    1.7140  -25.1330 C.ar      1 IRE        -0.1585
     26 CAX       -51.0070    1.8060  -26.5120 C.ar      1 IRE         0.0048
     27 CL        -50.9430    3.3600  -27.2400 Cl        1 IRE        -0.0658
     28 CAW       -51.1410    0.6670  -27.2930 C.ar      1 IRE         0.1096
     29 FAB       -51.2180    0.7930  -28.6340 F         1 IRE        -0.1253
     30 CAD       -51.1890   -0.5850  -26.6740 C.ar      1 IRE        -0.1330
     31 CAE       -51.1030   -0.6820  -25.2800 C.ar      1 IRE        -0.1185
     32 HAO1      -46.2659   -2.4759  -15.0137 H         1 IRE         0.0403
     33 HAO2      -45.0199   -1.7850  -16.1077 H         1 IRE         0.0403
     34 HAL1      -43.8853   -3.0071  -14.3025 H         1 IRE         0.0552
     35 HAL2      -44.8838   -4.4679  -14.6118 H         1 IRE         0.0552
     36 HAM1      -43.3259   -5.1231  -17.8973 H         1 IRE         0.0552
     37 HAM2      -44.4566   -5.7874  -16.6699 H         1 IRE         0.0552
     38 HAP1      -44.8677   -3.4734  -18.6013 H         1 IRE         0.0403
     39 HAP2      -45.8836   -4.9309  -18.3364 H         1 IRE         0.0403
     40 HAN1      -46.5372   -1.3446  -17.2535 H         1 IRE         0.0311
     41 HAN2      -46.3383   -2.3385  -18.7364 H         1 IRE         0.0311
     42 HAJ1      -48.5236   -3.4980  -18.1209 H         1 IRE         0.0679
     43 HAJ2      -48.7333   -2.2516  -16.8445 H         1 IRE         0.0679
     44 HAK1      -48.0757   -1.3197  -19.6579 H         1 IRE         0.0385
     45 HAK2      -49.7420   -1.9031  -19.3263 H         1 IRE         0.0385
     46 HAH       -52.9030    2.4140  -18.2420 H         1 IRE         0.1712
     47 HAA1      -50.9872    2.3734  -15.1154 H         1 IRE         0.0460
     48 HAA2      -52.2016    2.8144  -16.3635 H         1 IRE         0.0460
     49 HAA3      -50.4724    3.2375  -16.6037 H         1 IRE         0.0460
     50 HAI       -49.6960   -0.1160  -20.9990 H         1 IRE         0.1410
     51 H2        -54.3980    2.9330  -22.5660 H         1 IRE         0.0578
     52 HAG       -50.8190    2.6100  -24.5390 H         1 IRE         0.1507
     53 HAD       -51.2930   -1.4790  -27.2720 H         1 IRE         0.1565
     54 HAE       -51.1340   -1.6500  -24.8030 H         1 IRE         0.1584
     55 H55       -50.0915   -0.2388  -22.7602 H         1 IRE         0.4496
@<TRIPOS>BOND
     1    1    2 1
     2    1    6 1
     3    1   32 1
     4    1   33 1
     5    2    3 1
     6    2   34 1
     7    2   35 1
     8    3    4 1
     9    4    5 1
    10    4   36 1
    11    4   37 1
    12    5    6 1
    13    5   38 1
    14    5   39 1
    15    6    7 1
    16    7    8 1
    17    7   40 1
    18    7   41 1
    19    8    9 1
    20    8   42 1
    21    8   43 1
    22    9   10 1
    23    9   44 1
    24    9   45 1
    25   10   11 1
    26   11   12 ar
    27   11   16 ar
    28   12   13 ar
    29   12   14 1
    30   13   18 ar
    31   13   46 1
    32   14   15 1
    33   15   47 1
    34   15   48 1
    35   15   49 1
    36   16   17 ar
    37   16   50 1
    38   17   18 ar
    39   17   22 ar
    40   18   19 ar
    41   19   20 ar
    42   20   21 ar
    43   20   51 1
    44   21   22 ar
    45   22   23 1
    46   23   24 1
    47   23   55 1
    48   24   25 ar
    49   24   31 ar
    50   25   26 ar
    51   25   52 1
    52   26   27 1
    53   26   28 ar
    54   28   29 1
    55   28   30 ar
    56   30   31 ar
    57   30   53 1
    58   31   54 1
@<TRIPOS>SUBSTRUCTURE
     1 IRE         1 GROUP   0 A     ****
@<TRIPOS>MOLECULE
~{N}-(3-chloro-4-fluoro-phenyl)-7-methoxy-6-(3-morpholin-4-ium-4-ylpropoxy)quinazolin-4-amine
   56    59     1     0     0
SMALL
USER_CHARGES

@<TRIPOS>ATOM
      1 CAO       -45.4800   -2.7160  -15.7450 C.3       1 IRE         0.0719
      2 CAL       -44.4060   -3.5920  -15.0750 C.3       1 IRE         0.0956
      3 OAU       -43.4570   -4.0220  -16.1080 O.3       1 IRE        -0.3688
      4 CAM       -44.0750   -4.8660  -17.1340 C.3       1 IRE         0.0956
      5 CAP       -45.2550   -4.1730  -17.8460 C.3       1 IRE         0.0719
      6 NBE       -46.1310   -3.3930  -16.9140 N.4       1 IRE        -0.6877
      7 CAN       -46.7510   -2.3190  -17.7170 C.3       1 IRE         0.1102
      8 CAJ       -48.2760   -2.4690  -17.8210 C.3       1 IRE        -0.1279
      9 CAK       -48.8310   -1.4830  -18.8750 C.3       1 IRE         0.1341
     10 OAV       -49.1940   -0.1540  -18.3610 O.3       1 IRE        -0.3355
     11 CBA       -50.2350    0.4780  -19.0000 C.ar      1 IRE         0.0437
     12 CAZ       -51.1310    1.2010  -18.2160 C.ar      1 IRE         0.0947
     13 CAH       -52.1950    1.8590  -18.8390 C.ar      1 IRE        -0.1713
     14 OAT       -50.9480    1.2280  -16.8510 O.3       1 IRE        -0.3570
     15 CAA       -51.1650    2.4870  -16.1950 C.3       1 IRE         0.1148
     16 CAI       -50.3990    0.4370  -20.3940 C.ar      1 IRE        -0.0895
     17 C5        -51.4580    1.1010  -21.0030 C.ar      1 IRE        -0.2991
     18 C4        -52.3520    1.8070  -20.2220 C.ar      1 IRE         0.4512
     19 N3        -53.3700    2.4460  -20.8190 N.ar      1 IRE        -0.7071
     20 C2        -53.5590    2.4110  -22.1310 C.ar      1 IRE         0.6863
     21 N1        -52.7310    1.7450  -22.9050 N.ar      1 IRE        -0.7452
     22 C6        -51.6810    1.0850  -22.3780 C.ar      1 IRE         0.7036
     23 NAS       -50.8760    0.4060  -23.1830 N.pl3     1 IRE        -0.7214
     24 CAY       -50.9780    0.4720  -24.5090 C.ar      1 IRE         0.1073
     25 CAG       -50.9250    1.7140  -25.1330 C.ar      1 IRE        -0.1414
     26 CAX       -51.0070    1.8060  -26.5120 C.ar      1 IRE        -0.0128
     27 CL        -50.9430    3.3600  -27.2400 Cl        1 IRE        -0.0573
     28 CAW       -51.1410    0.6670  -27.2930 C.ar      1 IRE         0.1413
     29 FAB       -51.2180    0.7930  -28.6340 F         1 IRE        -0.1154
     30 CAD       -51.1890   -0.5850  -26.6740 C.ar      1 IRE        -0.1488
     31 CAE       -51.1030   -0.6820  -25.2800 C.ar      1 IRE        -0.0736
     32 HAO1      -46.2659   -2.4759  -15.0137 H         1 IRE         0.1155
     33 HAO2      -45.0199   -1.7850  -16.1077 H         1 IRE         0.1155
     34 HAL1      -43.8853   -3.0071  -14.3025 H         1 IRE         0.0982
     35 HAL2      -44.8838   -4.4679  -14.6118 H         1 IRE         0.0982
     36 HAM1      -43.3259   -5.1231  -17.8973 H         1 IRE         0.0982
     37 HAM2      -44.4566   -5.7874  -16.6699 H         1 IRE         0.0982
     38 HAP1      -44.8677   -3.4734  -18.6013 H         1 IRE         0.1155
     39 HAP2      -45.8836   -4.9309  -18.3364 H         1 IRE         0.1155
     40 HAN1      -46.5372   -1.3446  -17.2535 H         1 IRE         0.1077
     41 HAN2      -46.3383   -2.3385  -18.7364 H         1 IRE         0.1077
     42 HAJ1      -48.5236   -3.4980  -18.1209 H         1 IRE         0.0759
     43 HAJ2      -48.7333   -2.2516  -16.8445 H         1 IRE         0.0759
     44 HAK1      -48.0757   -1.3197  -19.6579 H         1 IRE         0.0662
     45 HAK2      -49.7420   -1.9031  -19.3263 H         1 IRE         0.0662
     46 HAH       -52.9030    2.4140  -18.2420 H         1 IRE         0.1800
     47 HAA1      -50.9872    2.3734  -15.1154 H         1 IRE         0.0506
     48 HAA2      -52.2016    2.8144  -16.3635 H         1 IRE         0.0506
     49 HAA3      -50.4724    3.2375  -16.6037 H         1 IRE         0.0506
     50 HAI       -49.6960   -0.1160  -20.9990 H         1 IRE         0.1382
     51 H2        -54.3980    2.9330  -22.5660 H         1 IRE         0.0675
     52 HAG       -50.8190    2.6100  -24.5390 H         1 IRE         0.1447
     53 HAD       -51.2930   -1.4790  -27.2720 H         1 IRE         0.1650
     54 HAE       -51.1340   -1.6500  -24.8030 H         1 IRE         0.1688
     55 H55       -50.0915   -0.2388  -22.7602 H         1 IRE         0.4220
     56 H56       -46.8218   -4.1326  -16.4829 H         1 IRE         0.4452
@<TRIPOS>BOND
     1    1    2 1
     2    1    6 1
     3    1   32 1
     4    1   33 1
     5    2    3 1
     6    2   34 1
     7    2   35 1
     8    3    4 1
     9    4    5 1
    10    4   36 1
    11    4   37 1
    12    5    6 1
    13    5   38 1
    14    5   39 1
    15    6    7 1
    16    6   56 1
    17    7    8 1
    18    7   40 1
    19    7   41 1
    20    8    9 1
    21    8   42 1
    22    8   43 1
    23    9   10 1
    24    9   44 1
    25    9   45 1
    26   10   11 1
    27   11   12 ar
    28   11   16 ar
    29   12   13 ar
    30   12   14 1
    31   13   18 ar
    32   13   46 1
    33   14   15 1
    34   15   47 1
    35   15   48 1
    36   15   49 1
    37   16   17 ar
    38   16   50 1
    39   17   18 ar
    40   17   22 ar
    41   18   19 ar
    42   19   20 ar
    43   20   21 ar
    44   20   51 1
    45   21   22 ar
    46   22   23 1
    47   23   24 1
    48   23   55 1
    49   24   25 ar
    50   24   31 ar
    51   25   26 ar
    52   25   52 1
    53   26   27 1
    54   26   28 ar
    55   28   29 1
    56   28   30 ar
    57   30   31 ar
    58   30   53 1
    59   31   54 1
@<TRIPOS>SUBSTRUCTURE
     1 IRE         1 GROUP   0 A     ****
@<TRIPOS>MOLECULE
(3-chloro-4-fluoro-phenyl)-[7-methoxy-6-(3-morpholinopropoxy)-1~{H}-quinazolin-4-ylidene]ammonium
   56    59     1     0     0
SMALL
USER_CHARGES

@<TRIPOS>ATOM
      1 CAO       -45.4800   -2.7160  -15.7450 C.3       1 IRE         0.1310
      2 CAL       -44.4060   -3.5920  -15.0750 C.3       1 IRE         0.1251
      3 OAU       -43.4570   -4.0220  -16.1080 O.3       1 IRE        -0.4071
      4 CAM       -44.0750   -4.8660  -17.1340 C.3       1 IRE         0.1251
      5 CAP       -45.2550   -4.1730  -17.8460 C.3       1 IRE         0.1310
      6 NBE       -46.1310   -3.3930  -16.9140 N.3       1 IRE        -0.7298
      7 CAN       -46.7510   -2.3190  -17.7170 C.3       1 IRE         0.1794
      8 CAJ       -48.2760   -2.4690  -17.8210 C.3       1 IRE        -0.0920
      9 CAK       -48.8310   -1.4830  -18.8750 C.3       1 IRE         0.1244
     10 OAV       -49.1940   -0.1540  -18.3610 O.3       1 IRE        -0.3111
     11 CBA       -50.2350    0.4780  -19.0000 C.ar      1 IRE         0.1100
     12 CAZ       -51.1310    1.2010  -18.2160 C.ar      1 IRE         0.1876
     13 CAH       -52.1950    1.8590  -18.8390 C.ar      1 IRE        -0.1768
     14 OAT       -50.9480    1.2280  -16.8510 O.3       1 IRE        -0.3172
     15 CAA       -51.1650    2.4870  -16.1950 C.3       1 IRE         0.1162
     16 CAI       -50.3990    0.4370  -20.3940 C.ar      1 IRE        -0.1159
     17 C5        -51.4580    1.1010  -21.0030 C.ar      1 IRE        -0.2373
     18 C4        -52.3520    1.8070  -20.2220 C.ar      1 IRE         0.1666
     19 N3        -53.3700    2.4460  -20.8190 N.pl3     1 IRE        -0.6551
     20 C2        -53.5590    2.4110  -22.1310 C.ar      1 IRE         0.7129
     21 N1        -52.7310    1.7450  -22.9050 N.ar      1 IRE        -0.7302
     22 C6        -51.6810    1.0850  -22.3780 C.ar      1 IRE         0.6173
     23 NAS       -50.8760    0.4060  -23.1830 N.pl3     1 IRE        -0.2317
     24 CAY       -50.9780    0.4720  -24.5090 C.ar      1 IRE        -0.0727
     25 CAG       -50.9250    1.7140  -25.1330 C.ar      1 IRE        -0.0700
     26 CAX       -51.0070    1.8060  -26.5120 C.ar      1 IRE        -0.0234
     27 CL        -50.9430    3.3600  -27.2400 Cl        1 IRE        -0.0225
     28 CAW       -51.1410    0.6670  -27.2930 C.ar      1 IRE         0.1756
     29 FAB       -51.2180    0.7930  -28.6340 F         1 IRE        -0.0972
     30 CAD       -51.1890   -0.5850  -26.6740 C.ar      1 IRE        -0.1461
     31 CAE       -51.1030   -0.6820  -25.2800 C.ar      1 IRE        -0.0918
     32 HAO1      -46.2659   -2.4759  -15.0137 H         1 IRE         0.0413
     33 HAO2      -45.0199   -1.7850  -16.1077 H         1 IRE         0.0413
     34 HAL1      -43.8853   -3.0071  -14.3025 H         1 IRE         0.0605
     35 HAL2      -44.8838   -4.4679  -14.6118 H         1 IRE         0.0605
     36 HAM1      -43.3259   -5.1231  -17.8973 H         1 IRE         0.0605
     37 HAM2      -44.4566   -5.7874  -16.6699 H         1 IRE         0.0605
     38 HAP1      -44.8677   -3.4734  -18.6013 H         1 IRE         0.0413
     39 HAP2      -45.8836   -4.9309  -18.3364 H         1 IRE         0.0413
     40 HAN1      -46.5372   -1.3446  -17.2535 H         1 IRE         0.0309
     41 HAN2      -46.3383   -2.3385  -18.7364 H         1 IRE         0.0309
     42 HAJ1      -48.5236   -3.4980  -18.1209 H         1 IRE         0.0725
     43 HAJ2      -48.7333   -2.2516  -16.8445 H         1 IRE         0.0725
     44 HAK1      -48.0757   -1.3197  -19.6579 H         1 IRE         0.0417
     45 HAK2      -49.7420   -1.9031  -19.3263 H         1 IRE         0.0417
     46 HAH       -52.9030    2.4140  -18.2420 H         1 IRE         0.1798
     47 HAA1      -50.9872    2.3734  -15.1154 H         1 IRE         0.0585
     48 HAA2      -52.2016    2.8144  -16.3635 H         1 IRE         0.0585
     49 HAA3      -50.4724    3.2375  -16.6037 H         1 IRE         0.0585
     50 HAI       -49.6960   -0.1160  -20.9990 H         1 IRE         0.1573
     51 H3        -54.0848    3.0254  -20.2163 H         1 IRE         0.4925
     52 H2        -54.3980    2.9330  -22.5660 H         1 IRE         0.1042
     53 HAG       -50.8190    2.6100  -24.5390 H         1 IRE         0.1634
     54 HAD       -51.2930   -1.4790  -27.2720 H         1 IRE         0.1776
     55 HAE       -51.1340   -1.6500  -24.8030 H         1 IRE         0.1557
     56 H56       -50.0915   -0.2388  -22.7602 H         1 IRE         0.3221
@<TRIPOS>BOND
     1    1    2 1
     2    1    6 1
     3    1   32 1
     4    1   33 1
     5    2    3 1
     6    2   34 1
     7    2   35 1
     8    3    4 1
     9    4    5 1
    10    4   36 1
    11    4   37 1
    12    5    6 1
    13    5   38 1
    14    5   39 1
    15    6    7 1
    16    7    8 1
    17    7   40 1
    18    7   41 1
    19    8    9 1
    20    8   42 1
    21    8   43 1
    22    9   10 1
    23    9   44 1
    24    9   45 1
    25   10   11 1
    26   11   12 ar
    27   11   16 ar
    28   12   13 ar
    29   12   14 1
    30   13   18 ar
    31   13   46 1
    32   14   15 1
    33   15   47 1
    34   15   48 1
    35   15   49 1
    36   16   17 ar
    37   16   50 1
    38   17   18 ar
    39   17   22 ar
    40   18   19 ar
    41   19   20 ar
    42   19   51 1
    43   20   21 ar
    44   20   52 1
    45   21   22 ar
    46   22   23 2
    47   23   24 1
    48   23   56 1
    49   24   25 ar
    50   24   31 ar
    51   25   26 ar
    52   25   53 1
    53   26   27 1
    54   26   28 ar
    55   28   29 1
    56   28   30 ar
    57   30   31 ar
    58   30   54 1
    59   31   55 1
@<TRIPOS>SUBSTRUCTURE
     1 IRE         1 GROUP   0 A     ****
@<TRIPOS>MOLECULE
~{N}-(3-chloro-4-fluoro-phenyl)-7-methoxy-6-(3-morpholinopropoxy)-1,2-dihydroquinazolin-2-ylium-4-amine
   56    59     1     0     0
SMALL
USER_CHARGES

@<TRIPOS>ATOM
      1 CAO       -45.4800   -2.7160  -15.7450 C.3       1 IRE         0.1327
      2 CAL       -44.4060   -3.5920  -15.0750 C.3       1 IRE         0.1237
      3 OAU       -43.4570   -4.0220  -16.1080 O.3       1 IRE        -0.4029
      4 CAM       -44.0750   -4.8660  -17.1340 C.3       1 IRE         0.1237
      5 CAP       -45.2550   -4.1730  -17.8460 C.3       1 IRE         0.1327
      6 NBE       -46.1310   -3.3930  -16.9140 N.3       1 IRE        -0.7353
      7 CAN       -46.7510   -2.3190  -17.7170 C.3       1 IRE         0.1791
      8 CAJ       -48.2760   -2.4690  -17.8210 C.3       1 IRE        -0.0930
      9 CAK       -48.8310   -1.4830  -18.8750 C.3       1 IRE         0.1295
     10 OAV       -49.1940   -0.1540  -18.3610 O.3       1 IRE        -0.3316
     11 CBA       -50.2350    0.4780  -19.0000 C.ar      1 IRE         0.1139
     12 CAZ       -51.1310    1.2010  -18.2160 C.ar      1 IRE         0.1622
     13 CAH       -52.1950    1.8590  -18.8390 C.ar      1 IRE        -0.1702
     14 OAT       -50.9480    1.2280  -16.8510 O.3       1 IRE        -0.3396
     15 CAA       -51.1650    2.4870  -16.1950 C.3       1 IRE         0.1157
     16 CAI       -50.3990    0.4370  -20.3940 C.ar      1 IRE        -0.0959
     17 C5        -51.4580    1.1010  -21.0030 C.ar      1 IRE        -0.2378
     18 C4        -52.3520    1.8070  -20.2220 C.ar      1 IRE         0.1610
     19 N3        -53.3700    2.4460  -20.8190 N.pl3     1 IRE        -0.5814
     20 C2        -53.5590    2.4110  -22.1310 C.cat     1 IRE         0.3676
     21 N1        -52.7310    1.7450  -22.9050 N.ar      1 IRE        -0.6481
     22 C6        -51.6810    1.0850  -22.3780 C.ar      1 IRE         0.7831
     23 NAS       -50.8760    0.4060  -23.1830 N.pl3     1 IRE        -0.6058
     24 CAY       -50.9780    0.4720  -24.5090 C.ar      1 IRE         0.0560
     25 CAG       -50.9250    1.7140  -25.1330 C.ar      1 IRE        -0.1111
     26 CAX       -51.0070    1.8060  -26.5120 C.ar      1 IRE        -0.0147
     27 CL        -50.9430    3.3600  -27.2400 Cl        1 IRE        -0.0166
     28 CAW       -51.1410    0.6670  -27.2930 C.ar      1 IRE         0.1732
     29 FAB       -51.2180    0.7930  -28.6340 F         1 IRE        -0.0980
     30 CAD       -51.1890   -0.5850  -26.6740 C.ar      1 IRE        -0.1528
     31 CAE       -51.1030   -0.6820  -25.2800 C.ar      1 IRE        -0.0606
     32 HAO1      -46.2659   -2.4759  -15.0137 H         1 IRE         0.0417
     33 HAO2      -45.0199   -1.7850  -16.1077 H         1 IRE         0.0417
     34 HAL1      -43.8853   -3.0071  -14.3025 H         1 IRE         0.0590
     35 HAL2      -44.8838   -4.4679  -14.6118 H         1 IRE         0.0590
     36 HAM1      -43.3259   -5.1231  -17.8973 H         1 IRE         0.0590
     37 HAM2      -44.4566   -5.7874  -16.6699 H         1 IRE         0.0590
     38 HAP1      -44.8677   -3.4734  -18.6013 H         1 IRE         0.0417
     39 HAP2      -45.8836   -4.9309  -18.3364 H         1 IRE         0.0417
     40 HAN1      -46.5372   -1.3446  -17.2535 H         1 IRE         0.0344
     41 HAN2      -46.3383   -2.3385  -18.7364 H         1 IRE         0.0344
     42 HAJ1      -48.5236   -3.4980  -18.1209 H         1 IRE         0.0660
     43 HAJ2      -48.7333   -2.2516  -16.8445 H         1 IRE         0.0660
     44 HAK1      -48.0757   -1.3197  -19.6579 H         1 IRE         0.0569
     45 HAK2      -49.7420   -1.9031  -19.3263 H         1 IRE         0.0569
     46 HAH       -52.9030    2.4140  -18.2420 H         1 IRE         0.1777
     47 HAA1      -50.9872    2.3734  -15.1154 H         1 IRE         0.0624
     48 HAA2      -52.2016    2.8144  -16.3635 H         1 IRE         0.0624
     49 HAA3      -50.4724    3.2375  -16.6037 H         1 IRE         0.0624
     50 HAI       -49.6960   -0.1160  -20.9990 H         1 IRE         0.1660
     51 H2        -54.3980    2.9330  -22.5660 H         1 IRE         0.2298
     52 HAG       -50.8190    2.6100  -24.5390 H         1 IRE         0.1582
     53 HAD       -51.2930   -1.4790  -27.2720 H         1 IRE         0.1759
     54 HAE       -51.1340   -1.6500  -24.8030 H         1 IRE         0.1663
     55 H55       -50.0915   -0.2388  -22.7602 H         1 IRE         0.4710
     56 H56       -54.0848    3.0254  -20.2163 H         1 IRE         0.4922
@<TRIPOS>BOND
     1    1    2 1
     2    1    6 1
     3    1   32 1
     4    1   33 1
     5    2    3 1
     6    2   34 1
     7    2   35 1
     8    3    4 1
     9    4    5 1
    10    4   36 1
    11    4   37 1
    12    5    6 1
    13    5   38 1
    14    5   39 1
    15    6    7 1
    16    7    8 1
    17    7   40 1
    18    7   41 1
    19    8    9 1
    20    8   42 1
    21    8   43 1
    22    9   10 1
    23    9   44 1
    24    9   45 1
    25   10   11 1
    26   11   12 ar
    27   11   16 ar
    28   12   13 ar
    29   12   14 1
    30   13   18 ar
    31   13   46 1
    32   14   15 1
    33   15   47 1
    34   15   48 1
    35   15   49 1
    36   16   17 ar
    37   16   50 1
    38   17   18 ar
    39   17   22 ar
    40   18   19 ar
    41   19   20 ar
    42   19   56 1
    43   20   21 ar
    44   20   51 1
    45   21   22 ar
    46   22   23 1
    47   23   24 1
    48   23   55 1
    49   24   25 ar
    50   24   31 ar
    51   25   26 ar
    52   25   52 1
    53   26   27 1
    54   26   28 ar
    55   28   29 1
    56   28   30 ar
    57   30   31 ar
    58   30   53 1
    59   31   54 1
@<TRIPOS>SUBSTRUCTURE
     1 IRE         1 GROUP   0 A     ****
@<TRIPOS>MOLECULE
(3-chloro-4-fluoro-phenyl)-[7-methoxy-6-(3-morpholin-4-ium-4-ylpropoxy)-1~{H}-quinazolin-4-ylidene]ammonium
   57    60     1     0     0
SMALL
USER_CHARGES

@<TRIPOS>ATOM
      1 CAO       -45.4800   -2.7160  -15.7450 C.3       1 IRE         0.0719
      2 CAL       -44.4060   -3.5920  -15.0750 C.3       1 IRE         0.0949
      3 OAU       -43.4570   -4.0220  -16.1080 O.3       1 IRE        -0.3604
      4 CAM       -44.0750   -4.8660  -17.1340 C.3       1 IRE         0.0949
      5 CAP       -45.2550   -4.1730  -17.8460 C.3       1 IRE         0.0719
      6 NBE       -46.1310   -3.3930  -16.9140 N.4       1 IRE        -0.6886
      7 CAN       -46.7510   -2.3190  -17.7170 C.3       1 IRE         0.1104
      8 CAJ       -48.2760   -2.4690  -17.8210 C.3       1 IRE        -0.1249
      9 CAK       -48.8310   -1.4830  -18.8750 C.3       1 IRE         0.1333
     10 OAV       -49.1940   -0.1540  -18.3610 O.3       1 IRE        -0.3270
     11 CBA       -50.2350    0.4780  -19.0000 C.ar      1 IRE         0.0791
     12 CAZ       -51.1310    1.2010  -18.2160 C.ar      1 IRE         0.1566
     13 CAH       -52.1950    1.8590  -18.8390 C.ar      1 IRE        -0.1666
     14 OAT       -50.9480    1.2280  -16.8510 O.3       1 IRE        -0.3560
     15 CAA       -51.1650    2.4870  -16.1950 C.3       1 IRE         0.1149
     16 CAI       -50.3990    0.4370  -20.3940 C.ar      1 IRE        -0.0706
     17 C5        -51.4580    1.1010  -21.0030 C.ar      1 IRE        -0.2385
     18 C4        -52.3520    1.8070  -20.2220 C.ar      1 IRE         0.1820
     19 N3        -53.3700    2.4460  -20.8190 N.pl3     1 IRE        -0.6644
     20 C2        -53.5590    2.4110  -22.1310 C.ar      1 IRE         0.7227
     21 N1        -52.7310    1.7450  -22.9050 N.ar      1 IRE        -0.7260
     22 C6        -51.6810    1.0850  -22.3780 C.ar      1 IRE         0.6088
     23 NAS       -50.8760    0.4060  -23.1830 N.pl3     1 IRE        -0.1979
     24 CAY       -50.9780    0.4720  -24.5090 C.ar      1 IRE        -0.0789
     25 CAG       -50.9250    1.7140  -25.1330 C.ar      1 IRE        -0.1010
     26 CAX       -51.0070    1.8060  -26.5120 C.ar      1 IRE        -0.0157
     27 CL        -50.9430    3.3600  -27.2400 Cl        1 IRE        -0.0103
     28 CAW       -51.1410    0.6670  -27.2930 C.ar      1 IRE         0.1868
     29 FAB       -51.2180    0.7930  -28.6340 F         1 IRE        -0.0874
     30 CAD       -51.1890   -0.5850  -26.6740 C.ar      1 IRE        -0.1477
     31 CAE       -51.1030   -0.6820  -25.2800 C.ar      1 IRE        -0.0657
     32 HAO1      -46.2659   -2.4759  -15.0137 H         1 IRE         0.1153
     33 HAO2      -45.0199   -1.7850  -16.1077 H         1 IRE         0.1153
     34 HAL1      -43.8853   -3.0071  -14.3025 H         1 IRE         0.1025
     35 HAL2      -44.8838   -4.4679  -14.6118 H         1 IRE         0.1025
     36 HAM1      -43.3259   -5.1231  -17.8973 H         1 IRE         0.1025
     37 HAM2      -44.4566   -5.7874  -16.6699 H         1 IRE         0.1025
     38 HAP1      -44.8677   -3.4734  -18.6013 H         1 IRE         0.1153
     39 HAP2      -45.8836   -4.9309  -18.3364 H         1 IRE         0.1153
     40 HAN1      -46.5372   -1.3446  -17.2535 H         1 IRE         0.1092
     41 HAN2      -46.3383   -2.3385  -18.7364 H         1 IRE         0.1092
     42 HAJ1      -48.5236   -3.4980  -18.1209 H         1 IRE         0.0809
     43 HAJ2      -48.7333   -2.2516  -16.8445 H         1 IRE         0.0809
     44 HAK1      -48.0757   -1.3197  -19.6579 H         1 IRE         0.0713
     45 HAK2      -49.7420   -1.9031  -19.3263 H         1 IRE         0.0713
     46 HAH       -52.9030    2.4140  -18.2420 H         1 IRE         0.1851
     47 HAA1      -50.9872    2.3734  -15.1154 H         1 IRE         0.0614
     48 HAA2      -52.2016    2.8144  -16.3635 H         1 IRE         0.0614
     49 HAA3      -50.4724    3.2375  -16.6037 H         1 IRE         0.0614
     50 HAI       -49.6960   -0.1160  -20.9990 H         1 IRE         0.1667
     51 H3        -54.0848    3.0254  -20.2163 H         1 IRE         0.4964
     52 H2        -54.3980    2.9330  -22.5660 H         1 IRE         0.1124
     53 HAG       -50.8190    2.6100  -24.5390 H         1 IRE         0.1589
     54 HAD       -51.2930   -1.4790  -27.2720 H         1 IRE         0.1817
     55 HAE       -51.1340   -1.6500  -24.8030 H         1 IRE         0.1594
     56 H56       -50.0915   -0.2388  -22.7602 H         1 IRE         0.3156
     57 H57       -46.8218   -4.1326  -16.4829 H         1 IRE         0.4447
@<TRIPOS>BOND
     1    1    2 1
     2    1    6 1
     3    1   32 1
     4    1   33 1
     5    2    3 1
     6    2   34 1
     7    2   35 1
     8    3    4 1
     9    4    5 1
    10    4   36 1
    11    4   37 1
    12    5    6 1
    13    5   38 1
    14    5   39 1
    15    6    7 1
    16    6   57 1
    17    7    8 1
    18    7   40 1
    19    7   41 1
    20    8    9 1
    21    8   42 1
    22    8   43 1
    23    9   10 1
    24    9   44 1
    25    9   45 1
    26   10   11 1
    27   11   12 ar
    28   11   16 ar
    29   12   13 ar
    30   12   14 1
    31   13   18 ar
    32   13   46 1
    33   14   15 1
    34   15   47 1
    35   15   48 1
    36   15   49 1
    37   16   17 ar
    38   16   50 1
    39   17   18 ar
    40   17   22 ar
    41   18   19 ar
    42   19   20 ar
    43   19   51 1
    44   20   21 ar
    45   20   52 1
    46   21   22 ar
    47   22   23 2
    48   23   24 1
    49   23   56 1
    50   24   25 ar
    51   24   31 ar
    52   25   26 ar
    53   25   53 1
    54   26   27 1
    55   26   28 ar
    56   28   29 1
    57   28   30 ar
    58   30   31 ar
    59   30   54 1
    60   31   55 1
@<TRIPOS>SUBSTRUCTURE
     1 IRE         1 GROUP   0 A     ****
