@<TRIPOS>MOLECULE
[4-[[4-(3-chloro-4-fluoro-anilino)-7-tetrahydrofuran-3-yloxy-quinazolin-6-yl]amino]-4-oxo-butyl]-dimethyl-ammonium
   62    65     1     0     0
SMALL
USER_CHARGES

@<TRIPOS>ATOM
      1 C1         53.1790   -1.6160  -21.7290 C.ar      1 0WN         0.6885
      2 N2         52.8410   -0.6260  -22.6090 N.ar      1 0WN        -0.7568
      3 N3         52.7050   -1.5670  -20.4430 N.ar      1 0WN        -0.7097
      4 C4         52.0300    0.4280  -22.2380 C.ar      1 0WN         0.7145
      5 C5         51.9030   -0.5230  -20.0530 C.ar      1 0WN         0.4503
      6 C6         51.5410    0.5000  -20.9270 C.ar      1 0WN        -0.2955
      7 C7         50.2450    1.5230  -19.1350 C.ar      1 0WN         0.0114
      8 C8         50.7090    1.5350  -20.4530 C.ar      1 0WN        -0.0887
      9 C9         50.6490    0.4930  -18.2850 C.ar      1 0WN         0.1023
     10 C10        51.4660   -0.5230  -18.7560 C.ar      1 0WN        -0.1980
     11 N11        51.6260    1.3250  -23.2670 N.pl3     1 0WN        -0.7302
     12 C12        51.7710   -0.5620  -26.5420 C.ar      1 0WN        -0.0134
     13 C13        51.7250    0.5220  -27.4050 C.ar      1 0WN         0.1347
     14 C14        51.6990   -0.3420  -25.1660 C.ar      1 0WN        -0.0808
     15 C15        51.6090    1.8130  -26.9140 C.ar      1 0WN        -0.1468
     16 C16        51.5900    0.9650  -24.6560 C.ar      1 0WN         0.1162
     17 C17        51.5430    2.0300  -25.5510 C.ar      1 0WN        -0.1417
     18 F18        51.7880    0.3220  -28.7120 F         1 0WN        -0.1176
     19 CL1        51.9050   -2.1620  -27.2040 Cl        1 0WN        -0.0500
     20 O20        50.2140    0.4870  -16.9920 O.3       1 0WN        -0.3557
     21 C21        50.7250   -0.3450  -15.9420 C.3       1 0WN         0.1134
     22 C22        50.3270   -1.8270  -16.0470 C.3       1 0WN         0.1118
     23 O23        49.7230   -2.2430  -14.8260 O.3       1 0WN        -0.4105
     24 C24        49.1970   -1.0530  -14.2520 C.3       1 0WN         0.1276
     25 C25        50.1460    0.0720  -14.6150 C.3       1 0WN        -0.1263
     26 N26        49.4570    2.5630  -18.5470 N.am      1 0WN        -0.4436
     27 C27        49.5680    3.9570  -18.7480 C.2       1 0WN         0.6572
     28 C28        48.6750    4.8840  -17.9680 C.3       1 0WN        -0.1562
     29 O29        50.3610    4.4170  -19.5490 O.2       1 0WN        -0.6063
     30 C30        49.0260    6.3970  -18.1540 C.3       1 0WN        -0.1013
     31 C31        47.9020    7.4640  -18.1670 C.3       1 0WN         0.1040
     32 N32        47.9490    8.4150  -19.3120 N.4       1 0WN        -0.6795
     33 C33        47.4780    7.8010  -20.5840 C.3       1 0WN         0.0812
     34 C34        47.1870    9.6590  -19.0290 C.3       1 0WN         0.0812
     35 H1         53.8140   -2.4300  -22.0440 H         1 0WN         0.0670
     36 H2         50.4280    2.3420  -21.1130 H         1 0WN         0.1562
     37 H3         51.7610   -1.3230  -18.0930 H         1 0WN         0.1728
     38 H4         51.3211    2.3511  -23.0137 H         1 0WN         0.4317
     39 H5         51.7270   -1.1810  -24.4870 H         1 0WN         0.1792
     40 H6         51.5700    2.6490  -27.5970 H         1 0WN         0.1574
     41 H7         51.4540    3.0390  -25.1750 H         1 0WN         0.1358
     42 H8         51.8047   -0.1759  -16.0668 H         1 0WN         0.0845
     43 H9         49.6123   -1.9571  -16.8730 H         1 0WN         0.0712
     44 H10        51.2236   -2.4348  -16.2387 H         1 0WN         0.0712
     45 H11        48.1935   -0.8616  -14.6600 H         1 0WN         0.0481
     46 H12        49.1327   -1.1699  -13.1601 H         1 0WN         0.0481
     47 H13        50.9565    0.1813  -13.8794 H         1 0WN         0.0580
     48 H14        49.6223    1.0326  -14.7290 H         1 0WN         0.0580
     49 H15        48.6498    2.3106  -17.8436 H         1 0WN         0.3410
     50 H16        47.6325    4.7470  -18.2912 H         1 0WN         0.0777
     51 H17        48.7590    4.6573  -16.8949 H         1 0WN         0.0777
     52 H18        49.6883    6.7227  -17.3384 H         1 0WN         0.0863
     53 H19        49.5350    6.5394  -19.1187 H         1 0WN         0.0863
     54 H20        46.9229    6.9646  -18.2127 H         1 0WN         0.1023
     55 H21        47.9617    8.0707  -17.2514 H         1 0WN         0.1023
     56 H23        47.5337    8.5446  -21.3927 H         1 0WN         0.1076
     57 H24        46.4372    7.4652  -20.4657 H         1 0WN         0.1076
     58 H25        48.1151    6.9397  -20.8333 H         1 0WN         0.1076
     59 H26        47.2474   10.3315  -19.8974 H         1 0WN         0.1076
     60 H27        47.6153   10.1588  -18.1477 H         1 0WN         0.1076
     61 H28        46.1343    9.4075  -18.8325 H         1 0WN         0.1076
     62 H62        49.0086    8.6807  -19.4411 H         1 0WN         0.4552
@<TRIPOS>BOND
     1    1    3 ar
     2    1   35 1
     3    1    2 ar
     4    2    4 ar
     5    3    5 ar
     6    4    6 ar
     7    4   11 1
     8    5   10 ar
     9    5    6 ar
    10    6    8 ar
    11    7   26 1
    12    7    9 ar
    13    7    8 ar
    14    8   36 1
    15    9   20 1
    16    9   10 ar
    17   10   37 1
    18   11   38 1
    19   11   16 1
    20   12   14 ar
    21   12   13 ar
    22   12   19 1
    23   13   15 ar
    24   13   18 1
    25   14   16 ar
    26   14   39 1
    27   15   17 ar
    28   15   40 1
    29   16   17 ar
    30   17   41 1
    31   20   21 1
    32   21   25 1
    33   21   42 1
    34   21   22 1
    35   22   23 1
    36   22   43 1
    37   22   44 1
    38   23   24 1
    39   24   45 1
    40   24   46 1
    41   24   25 1
    42   25   47 1
    43   25   48 1
    44   26   49 1
    45   26   27 am
    46   27   28 1
    47   27   29 2
    48   28   50 1
    49   28   51 1
    50   28   30 1
    51   30   52 1
    52   30   53 1
    53   30   31 1
    54   31   54 1
    55   31   55 1
    56   31   32 1
    57   32   34 1
    58   32   33 1
    59   32   62 1
    60   33   56 1
    61   33   57 1
    62   33   58 1
    63   34   59 1
    64   34   60 1
    65   34   61 1
@<TRIPOS>SUBSTRUCTURE
     1 0WN         1 GROUP   0 A     ****
@<TRIPOS>MOLECULE
~{N}-[4-(3-chloro-4-fluoro-anilino)-7-tetrahydrofuran-3-yloxy-quinazolin-6-yl]-4-(dimethylamino)butanamide
   61    64     1     0     0
SMALL
USER_CHARGES

@<TRIPOS>ATOM
      1 C1         53.1790   -1.6160  -21.7290 C.ar      1 0WN         0.6704
      2 N2         52.8410   -0.6260  -22.6090 N.ar      1 0WN        -0.7643
      3 N3         52.7050   -1.5670  -20.4430 N.ar      1 0WN        -0.7083
      4 C4         52.0300    0.4280  -22.2380 C.ar      1 0WN         0.7014
      5 C5         51.9030   -0.5230  -20.0530 C.ar      1 0WN         0.4280
      6 C6         51.5410    0.5000  -20.9270 C.ar      1 0WN        -0.2756
      7 C7         50.2450    1.5230  -19.1350 C.ar      1 0WN         0.0557
      8 C8         50.7090    1.5350  -20.4530 C.ar      1 0WN        -0.1318
      9 C9         50.6490    0.4930  -18.2850 C.ar      1 0WN         0.0914
     10 C10        51.4660   -0.5230  -18.7560 C.ar      1 0WN        -0.2003
     11 N11        51.6260    1.3250  -23.2670 N.pl3     1 0WN        -0.7213
     12 C12        51.7710   -0.5620  -26.5420 C.ar      1 0WN        -0.0085
     13 C13        51.7250    0.5220  -27.4050 C.ar      1 0WN         0.1250
     14 C14        51.6990   -0.3420  -25.1660 C.ar      1 0WN        -0.1438
     15 C15        51.6090    1.8130  -26.9140 C.ar      1 0WN        -0.1509
     16 C16        51.5900    0.9650  -24.6560 C.ar      1 0WN         0.1238
     17 C17        51.5430    2.0300  -25.5510 C.ar      1 0WN        -0.0818
     18 F18        51.7880    0.3220  -28.7120 F         1 0WN        -0.1252
     19 CL1        51.9050   -2.1620  -27.2040 Cl        1 0WN        -0.0664
     20 O20        50.2140    0.4870  -16.9920 O.3       1 0WN        -0.3521
     21 C21        50.7250   -0.3450  -15.9420 C.3       1 0WN         0.1117
     22 C22        50.3270   -1.8270  -16.0470 C.3       1 0WN         0.1116
     23 O23        49.7230   -2.2430  -14.8260 O.3       1 0WN        -0.4199
     24 C24        49.1970   -1.0530  -14.2520 C.3       1 0WN         0.1275
     25 C25        50.1460    0.0720  -14.6150 C.3       1 0WN        -0.1253
     26 N26        49.4570    2.5630  -18.5470 N.am      1 0WN        -0.4657
     27 C27        49.5680    3.9570  -18.7480 C.2       1 0WN         0.6702
     28 C28        48.6750    4.8840  -17.9680 C.3       1 0WN        -0.1501
     29 O29        50.3610    4.4170  -19.5490 O.2       1 0WN        -0.6004
     30 C30        49.0260    6.3970  -18.1540 C.3       1 0WN        -0.0753
     31 C31        47.9020    7.4640  -18.1670 C.3       1 0WN         0.1678
     32 N32        47.9490    8.4150  -19.3120 N.3       1 0WN        -0.7301
     33 C33        47.4780    7.8010  -20.5840 C.3       1 0WN         0.1532
     34 C34        47.1870    9.6590  -19.0290 C.3       1 0WN         0.1532
     35 H1         53.8140   -2.4300  -22.0440 H         1 0WN         0.0562
     36 H2         50.4280    2.3420  -21.1130 H         1 0WN         0.1741
     37 H3         51.7610   -1.3230  -18.0930 H         1 0WN         0.1639
     38 H4         51.3211    2.3511  -23.0137 H         1 0WN         0.4363
     39 H5         51.7270   -1.1810  -24.4870 H         1 0WN         0.1549
     40 H6         51.5700    2.6490  -27.5970 H         1 0WN         0.1564
     41 H7         51.4540    3.0390  -25.1750 H         1 0WN         0.1680
     42 H8         51.8047   -0.1759  -16.0668 H         1 0WN         0.0803
     43 H9         49.6123   -1.9571  -16.8730 H         1 0WN         0.0644
     44 H10        51.2236   -2.4348  -16.2387 H         1 0WN         0.0644
     45 H11        48.1935   -0.8616  -14.6600 H         1 0WN         0.0522
     46 H12        49.1327   -1.1699  -13.1601 H         1 0WN         0.0522
     47 H13        50.9565    0.1813  -13.8794 H         1 0WN         0.0646
     48 H14        49.6223    1.0326  -14.7290 H         1 0WN         0.0646
     49 H15        48.6498    2.3106  -17.8436 H         1 0WN         0.3340
     50 H16        47.6325    4.7470  -18.2912 H         1 0WN         0.0652
     51 H17        48.7590    4.6573  -16.8949 H         1 0WN         0.0652
     52 H18        49.6883    6.7227  -17.3384 H         1 0WN         0.0685
     53 H19        49.5350    6.5394  -19.1187 H         1 0WN         0.0685
     54 H20        46.9229    6.9646  -18.2127 H         1 0WN         0.0275
     55 H21        47.9617    8.0707  -17.2514 H         1 0WN         0.0275
     56 H23        47.5337    8.5446  -21.3927 H         1 0WN         0.0329
     57 H24        46.4372    7.4652  -20.4657 H         1 0WN         0.0329
     58 H25        48.1151    6.9397  -20.8333 H         1 0WN         0.0329
     59 H26        47.2474   10.3315  -19.8974 H         1 0WN         0.0329
     60 H27        47.6153   10.1588  -18.1477 H         1 0WN         0.0329
     61 H28        46.1343    9.4075  -18.8325 H         1 0WN         0.0329
@<TRIPOS>BOND
     1    1    3 ar
     2    1   35 1
     3    1    2 ar
     4    2    4 ar
     5    3    5 ar
     6    4    6 ar
     7    4   11 1
     8    5   10 ar
     9    5    6 ar
    10    6    8 ar
    11    7   26 1
    12    7    9 ar
    13    7    8 ar
    14    8   36 1
    15    9   20 1
    16    9   10 ar
    17   10   37 1
    18   11   38 1
    19   11   16 1
    20   12   14 ar
    21   12   13 ar
    22   12   19 1
    23   13   15 ar
    24   13   18 1
    25   14   16 ar
    26   14   39 1
    27   15   17 ar
    28   15   40 1
    29   16   17 ar
    30   17   41 1
    31   20   21 1
    32   21   25 1
    33   21   42 1
    34   21   22 1
    35   22   23 1
    36   22   43 1
    37   22   44 1
    38   23   24 1
    39   24   45 1
    40   24   46 1
    41   24   25 1
    42   25   47 1
    43   25   48 1
    44   26   49 1
    45   26   27 am
    46   27   28 1
    47   27   29 2
    48   28   50 1
    49   28   51 1
    50   28   30 1
    51   30   52 1
    52   30   53 1
    53   30   31 1
    54   31   54 1
    55   31   55 1
    56   31   32 1
    57   32   34 1
    58   32   33 1
    59   33   56 1
    60   33   57 1
    61   33   58 1
    62   34   59 1
    63   34   60 1
    64   34   61 1
@<TRIPOS>SUBSTRUCTURE
     1 0WN         1 GROUP   0 A     ****
@<TRIPOS>MOLECULE
[4-[[4-(3-chloro-4-fluoro-anilino)-7-tetrahydrofuran-3-yloxy-1,2-dihydroquinazolin-2-ylium-6-yl]amino]-4-oxo-butyl]-dimethyl-ammonium
   63    66     1     0     0
SMALL
USER_CHARGES

@<TRIPOS>ATOM
      1 C1         53.1790   -1.6160  -21.7290 C.cat     1 0WN         0.3923
      2 N2         52.8410   -0.6260  -22.6090 N.ar      1 0WN        -0.6681
      3 N3         52.7050   -1.5670  -20.4430 N.pl3     1 0WN        -0.5862
      4 C4         52.0300    0.4280  -22.2380 C.ar      1 0WN         0.7961
      5 C5         51.9030   -0.5230  -20.0530 C.ar      1 0WN         0.1680
      6 C6         51.5410    0.5000  -20.9270 C.ar      1 0WN        -0.2328
      7 C7         50.2450    1.5230  -19.1350 C.ar      1 0WN         0.0459
      8 C8         50.7090    1.5350  -20.4530 C.ar      1 0WN        -0.0947
      9 C9         50.6490    0.4930  -18.2850 C.ar      1 0WN         0.1545
     10 C10        51.4660   -0.5230  -18.7560 C.ar      1 0WN        -0.1560
     11 N11        51.6260    1.3250  -23.2670 N.pl3     1 0WN        -0.6038
     12 C12        51.7710   -0.5620  -26.5420 C.ar      1 0WN        -0.0224
     13 C13        51.7250    0.5220  -27.4050 C.ar      1 0WN         0.1792
     14 C14        51.6990   -0.3420  -25.1660 C.ar      1 0WN        -0.0624
     15 C15        51.6090    1.8130  -26.9140 C.ar      1 0WN        -0.1433
     16 C16        51.5900    0.9650  -24.6560 C.ar      1 0WN         0.0527
     17 C17        51.5430    2.0300  -25.5510 C.ar      1 0WN        -0.1127
     18 F18        51.7880    0.3220  -28.7120 F         1 0WN        -0.0911
     19 CL1        51.9050   -2.1620  -27.2040 Cl        1 0WN        -0.0107
     20 O20        50.2140    0.4870  -16.9920 O.3       1 0WN        -0.3481
     21 C21        50.7250   -0.3450  -15.9420 C.3       1 0WN         0.1057
     22 C22        50.3270   -1.8270  -16.0470 C.3       1 0WN         0.1094
     23 O23        49.7230   -2.2430  -14.8260 O.3       1 0WN        -0.3985
     24 C24        49.1970   -1.0530  -14.2520 C.3       1 0WN         0.1247
     25 C25        50.1460    0.0720  -14.6150 C.3       1 0WN        -0.1140
     26 N26        49.4570    2.5630  -18.5470 N.am      1 0WN        -0.4608
     27 C27        49.5680    3.9570  -18.7480 C.2       1 0WN         0.6710
     28 C28        48.6750    4.8840  -17.9680 C.3       1 0WN        -0.1557
     29 O29        50.3610    4.4170  -19.5490 O.2       1 0WN        -0.5937
     30 C30        49.0260    6.3970  -18.1540 C.3       1 0WN        -0.1026
     31 C31        47.9020    7.4640  -18.1670 C.3       1 0WN         0.1018
     32 N32        47.9490    8.4150  -19.3120 N.4       1 0WN        -0.6781
     33 C33        47.4780    7.8010  -20.5840 C.3       1 0WN         0.0808
     34 C34        47.1870    9.6590  -19.0290 C.3       1 0WN         0.0808
     35 H1         53.8140   -2.4300  -22.0440 H         1 0WN         0.2458
     36 H2         50.4280    2.3420  -21.1130 H         1 0WN         0.1765
     37 H3         51.7610   -1.3230  -18.0930 H         1 0WN         0.1872
     38 H4         51.3211    2.3511  -23.0137 H         1 0WN         0.4692
     39 H5         51.7270   -1.1810  -24.4870 H         1 0WN         0.1766
     40 H6         51.5700    2.6490  -27.5970 H         1 0WN         0.1771
     41 H7         51.4540    3.0390  -25.1750 H         1 0WN         0.1434
     42 H8         51.8047   -0.1759  -16.0668 H         1 0WN         0.0712
     43 H9         49.6123   -1.9571  -16.8730 H         1 0WN         0.0641
     44 H10        51.2236   -2.4348  -16.2387 H         1 0WN         0.0641
     45 H11        48.1935   -0.8616  -14.6600 H         1 0WN         0.0698
     46 H12        49.1327   -1.1699  -13.1601 H         1 0WN         0.0698
     47 H13        50.9565    0.1813  -13.8794 H         1 0WN         0.0659
     48 H14        49.6223    1.0326  -14.7290 H         1 0WN         0.0659
     49 H15        48.6498    2.3106  -17.8436 H         1 0WN         0.3497
     50 H16        47.6325    4.7470  -18.2912 H         1 0WN         0.0872
     51 H17        48.7590    4.6573  -16.8949 H         1 0WN         0.0872
     52 H18        49.6883    6.7227  -17.3384 H         1 0WN         0.0876
     53 H19        49.5350    6.5394  -19.1187 H         1 0WN         0.0876
     54 H20        46.9229    6.9646  -18.2127 H         1 0WN         0.1057
     55 H21        47.9617    8.0707  -17.2514 H         1 0WN         0.1057
     56 H23        47.5337    8.5446  -21.3927 H         1 0WN         0.1107
     57 H24        46.4372    7.4652  -20.4657 H         1 0WN         0.1107
     58 H25        48.1151    6.9397  -20.8333 H         1 0WN         0.1107
     59 H26        47.2474   10.3315  -19.8974 H         1 0WN         0.1107
     60 H27        47.6153   10.1588  -18.1477 H         1 0WN         0.1107
     61 H28        46.1343    9.4075  -18.8325 H         1 0WN         0.1107
     62 H62        49.0086    8.6807  -19.4411 H         1 0WN         0.4546
     63 H63        52.9677   -2.3618  -19.7293 H         1 0WN         0.4965
@<TRIPOS>BOND
     1    1    3 ar
     2    1   35 1
     3    1    2 ar
     4    2    4 ar
     5    3    5 ar
     6    3   63 1
     7    4    6 ar
     8    4   11 1
     9    5   10 ar
    10    5    6 ar
    11    6    8 ar
    12    7   26 1
    13    7    9 ar
    14    7    8 ar
    15    8   36 1
    16    9   20 1
    17    9   10 ar
    18   10   37 1
    19   11   38 1
    20   11   16 1
    21   12   14 ar
    22   12   13 ar
    23   12   19 1
    24   13   15 ar
    25   13   18 1
    26   14   16 ar
    27   14   39 1
    28   15   17 ar
    29   15   40 1
    30   16   17 ar
    31   17   41 1
    32   20   21 1
    33   21   25 1
    34   21   42 1
    35   21   22 1
    36   22   23 1
    37   22   43 1
    38   22   44 1
    39   23   24 1
    40   24   45 1
    41   24   46 1
    42   24   25 1
    43   25   47 1
    44   25   48 1
    45   26   49 1
    46   26   27 am
    47   27   28 1
    48   27   29 2
    49   28   50 1
    50   28   51 1
    51   28   30 1
    52   30   52 1
    53   30   53 1
    54   30   31 1
    55   31   54 1
    56   31   55 1
    57   31   32 1
    58   32   34 1
    59   32   33 1
    60   32   62 1
    61   33   56 1
    62   33   57 1
    63   33   58 1
    64   34   59 1
    65   34   60 1
    66   34   61 1
@<TRIPOS>SUBSTRUCTURE
     1 0WN         1 GROUP   0 A     ****
