@<TRIPOS>MOLECULE
~{N}-methyl-2-[[3-[2-(2-pyridyl)vinyl]-1~{H}-indazol-6-yl]sulfanyl]benzamide
   46    49     1     0     0
SMALL
USER_CHARGES

@<TRIPOS>ATOM
      1 O81        24.8310   23.4700   35.7940 O.2       1 AXI        -0.5809
      2 C80        25.4990   22.8060   36.6100 C.2       1 AXI         0.6677
      3 N82        26.4150   21.9160   36.1840 N.am      1 AXI        -0.5748
      4 C88        26.7820   21.7270   34.7830 C.3       1 AXI         0.0859
      5 C23        25.2920   23.0320   38.0660 C.ar      1 AXI        -0.1208
      6 C22        26.4560   22.9970   38.8890 C.ar      1 AXI        -0.1077
      7 C21        26.4090   23.2000   40.2910 C.ar      1 AXI        -0.1354
      8 C20        25.1560   23.4620   40.8850 C.ar      1 AXI        -0.1059
      9 C18        24.0180   23.2980   38.6740 C.ar      1 AXI         0.0210
     10 C19        23.9820   23.4920   40.0940 C.ar      1 AXI        -0.1362
     11 S24        22.5100   23.3470   37.7880 S.3       1 AXI        -0.0910
     12 C07        21.4890   24.5480   38.5260 C.ar      1 AXI        -0.0232
     13 C08        20.1230   24.2590   38.7960 C.ar      1 AXI        -0.1207
     14 C09        19.2570   25.2390   39.3920 C.ar      1 AXI        -0.0729
     15 C12        22.0200   25.8320   38.8650 C.ar      1 AXI        -0.0918
     16 C11        21.1780   26.7750   39.4500 C.ar      1 AXI         0.0622
     17 N15        21.4300   28.0760   39.8550 N.pl3     1 AXI        -0.3863
     18 N14        20.3390   28.5970   40.3060 N.ar      1 AXI        -0.3983
     19 C13        19.3710   27.7550   40.2740 C.ar      1 AXI         0.3771
     20 C10        19.8440   26.5040   39.7110 C.ar      1 AXI        -0.1813
     21 C16        18.0180   28.1340   40.7130 C.2       1 AXI        -0.1743
     22 C17        16.8850   27.3250   40.8080 C.2       1 AXI        -0.2000
     23 C02        15.5470   27.8250   41.2730 C.ar      1 AXI         0.4480
     24 N03        14.5760   26.8900   41.3370 N.ar      1 AXI        -0.6579
     25 C04        13.3190   27.2230   41.7450 C.ar      1 AXI         0.3986
     26 C05        13.0020   28.5450   42.1030 C.ar      1 AXI        -0.2468
     27 C06        14.0040   29.5300   42.0410 C.ar      1 AXI        -0.0931
     28 C01        15.3120   29.1790   41.6160 C.ar      1 AXI        -0.2372
     29 H82        26.8973   21.3104   36.9654 H         1 AXI         0.3133
     30 H881       27.5497   20.9428   34.7077 H         1 AXI         0.0428
     31 H882       27.1794   22.6693   34.3778 H         1 AXI         0.0428
     32 H883       25.8933   21.4266   34.2085 H         1 AXI         0.0428
     33 H22        27.4130   22.8080   38.4250 H         1 AXI         0.1379
     34 H21        27.3080   23.1550   40.8880 H         1 AXI         0.1373
     35 H20        25.0920   23.6410   41.9480 H         1 AXI         0.1376
     36 H19        23.0310   23.6660   40.5750 H         1 AXI         0.1474
     37 H08        19.7290   23.2840   38.5480 H         1 AXI         0.1538
     38 H12        23.0560   26.0660   38.6710 H         1 AXI         0.1509
     39 H09        18.2160   25.0310   39.5890 H         1 AXI         0.1436
     40 H16        17.9585   29.1980   40.9858 H         1 AXI         0.1315
     41 H17        16.9444   26.2611   40.5348 H         1 AXI         0.1607
     42 H01        16.0990   29.9170   41.5560 H         1 AXI         0.1442
     43 H04        12.5560   26.4610   41.7940 H         1 AXI         0.0228
     44 H05        12.0020   28.8010   42.4210 H         1 AXI         0.1439
     45 H06        13.7790   30.5500   42.3160 H         1 AXI         0.1381
     46 H46        22.4425   28.4953   39.7599 H         1 AXI         0.4845
@<TRIPOS>BOND
     1    1    2 2
     2    2    3 am
     3    2    5 1
     4    3    4 1
     5    3   29 1
     6    4   30 1
     7    4   31 1
     8    4   32 1
     9    5    6 ar
    10    5    9 ar
    11    6    7 ar
    12    6   33 1
    13    7    8 ar
    14    7   34 1
    15    8   10 ar
    16    8   35 1
    17    9   10 ar
    18    9   11 1
    19   10   36 1
    20   11   12 1
    21   12   13 ar
    22   12   15 ar
    23   13   14 ar
    24   13   37 1
    25   14   20 ar
    26   14   39 1
    27   15   16 ar
    28   15   38 1
    29   16   17 ar
    30   16   20 ar
    31   17   18 ar
    32   17   46 1
    33   18   19 ar
    34   19   20 ar
    35   19   21 1
    36   21   22 2
    37   21   40 1
    38   22   23 1
    39   22   41 1
    40   23   24 ar
    41   23   28 ar
    42   24   25 ar
    43   25   26 ar
    44   25   43 1
    45   26   27 ar
    46   26   44 1
    47   27   28 ar
    48   27   45 1
    49   28   42 1
@<TRIPOS>SUBSTRUCTURE
     1 AXI         1 GROUP   0 A     ****
@<TRIPOS>MOLECULE
~{N}-methyl-2-[[3-[2-(2-pyridyl)vinyl]-2~{H}-indazol-6-yl]sulfanyl]benzamide
   46    49     1     0     0
SMALL
USER_CHARGES

@<TRIPOS>ATOM
      1 O81        24.8310   23.4700   35.7940 O.2       1 AXI        -0.5806
      2 C80        25.4990   22.8060   36.6100 C.2       1 AXI         0.6698
      3 N82        26.4150   21.9160   36.1840 N.am      1 AXI        -0.5759
      4 C88        26.7820   21.7270   34.7830 C.3       1 AXI         0.0849
      5 C23        25.2920   23.0320   38.0660 C.ar      1 AXI        -0.1199
      6 C22        26.4560   22.9970   38.8890 C.ar      1 AXI        -0.1089
      7 C21        26.4090   23.2000   40.2910 C.ar      1 AXI        -0.1354
      8 C20        25.1560   23.4620   40.8850 C.ar      1 AXI        -0.1076
      9 C18        24.0180   23.2980   38.6740 C.ar      1 AXI         0.0211
     10 C19        23.9820   23.4920   40.0940 C.ar      1 AXI        -0.1342
     11 S24        22.5100   23.3470   37.7880 S.3       1 AXI        -0.1088
     12 C07        21.4890   24.5480   38.5260 C.ar      1 AXI        -0.0307
     13 C08        20.1230   24.2590   38.7960 C.ar      1 AXI        -0.1092
     14 C09        19.2570   25.2390   39.3920 C.ar      1 AXI        -0.0782
     15 C12        22.0200   25.8320   38.8650 C.ar      1 AXI        -0.1440
     16 C11        21.1780   26.7750   39.4500 C.ar      1 AXI         0.3393
     17 N15        21.4300   28.0760   39.8550 N.ar      1 AXI        -0.5067
     18 N14        20.3390   28.5970   40.3060 N.pl3     1 AXI         0.0524
     19 C13        19.3710   27.7550   40.2740 C.ar      1 AXI        -0.1001
     20 C10        19.8440   26.5040   39.7110 C.ar      1 AXI        -0.1692
     21 C16        18.0180   28.1340   40.7130 C.2       1 AXI        -0.0746
     22 C17        16.8850   27.3250   40.8080 C.2       1 AXI        -0.2229
     23 C02        15.5470   27.8250   41.2730 C.ar      1 AXI         0.4455
     24 N03        14.5760   26.8900   41.3370 N.ar      1 AXI        -0.6601
     25 C04        13.3190   27.2230   41.7450 C.ar      1 AXI         0.4006
     26 C05        13.0020   28.5450   42.1030 C.ar      1 AXI        -0.2434
     27 C06        14.0040   29.5300   42.0410 C.ar      1 AXI        -0.0918
     28 C01        15.3120   29.1790   41.6160 C.ar      1 AXI        -0.2338
     29 H82        26.8973   21.3104   36.9654 H         1 AXI         0.3136
     30 H881       27.5497   20.9428   34.7077 H         1 AXI         0.0425
     31 H882       27.1794   22.6693   34.3778 H         1 AXI         0.0425
     32 H883       25.8933   21.4266   34.2085 H         1 AXI         0.0425
     33 H22        27.4130   22.8080   38.4250 H         1 AXI         0.1363
     34 H21        27.3080   23.1550   40.8880 H         1 AXI         0.1362
     35 H20        25.0920   23.6410   41.9480 H         1 AXI         0.1378
     36 H19        23.0310   23.6660   40.5750 H         1 AXI         0.1485
     37 H08        19.7290   23.2840   38.5480 H         1 AXI         0.1525
     38 H12        23.0560   26.0660   38.6710 H         1 AXI         0.1569
     39 H09        18.2160   25.0310   39.5890 H         1 AXI         0.1383
     40 H14        20.3306   29.6405   40.6539 H         1 AXI         0.3270
     41 H16        17.9585   29.1980   40.9858 H         1 AXI         0.1487
     42 H17        16.9444   26.2611   40.5348 H         1 AXI         0.1416
     43 H01        16.0990   29.9170   41.5560 H         1 AXI         0.1453
     44 H04        12.5560   26.4610   41.7940 H         1 AXI         0.0250
     45 H05        12.0020   28.8010   42.4210 H         1 AXI         0.1459
     46 H06        13.7790   30.5500   42.3160 H         1 AXI         0.1410
@<TRIPOS>BOND
     1    1    2 2
     2    2    3 am
     3    2    5 1
     4    3    4 1
     5    3   29 1
     6    4   30 1
     7    4   31 1
     8    4   32 1
     9    5    6 ar
    10    5    9 ar
    11    6    7 ar
    12    6   33 1
    13    7    8 ar
    14    7   34 1
    15    8   10 ar
    16    8   35 1
    17    9   10 ar
    18    9   11 1
    19   10   36 1
    20   11   12 1
    21   12   13 ar
    22   12   15 ar
    23   13   14 ar
    24   13   37 1
    25   14   20 ar
    26   14   39 1
    27   15   16 ar
    28   15   38 1
    29   16   17 ar
    30   16   20 ar
    31   17   18 ar
    32   18   19 ar
    33   18   40 1
    34   19   20 ar
    35   19   21 1
    36   21   22 2
    37   21   41 1
    38   22   23 1
    39   22   42 1
    40   23   24 ar
    41   23   28 ar
    42   24   25 ar
    43   25   26 ar
    44   25   44 1
    45   26   27 ar
    46   26   45 1
    47   27   28 ar
    48   27   46 1
    49   28   43 1
@<TRIPOS>SUBSTRUCTURE
     1 AXI         1 GROUP   0 A     ****
@<TRIPOS>MOLECULE
~{N}-methyl-2-[[3-[2-(1~{H}-pyridin-2-ylium-2-yl)vinyl]-1~{H}-indazol-6-yl]sulfanyl]benzamide
   47    50     1     0     0
SMALL
USER_CHARGES

@<TRIPOS>ATOM
      1 O81        24.8310   23.4700   35.7940 O.2       1 AXI        -0.5828
      2 C80        25.4990   22.8060   36.6100 C.2       1 AXI         0.6642
      3 N82        26.4150   21.9160   36.1840 N.am      1 AXI        -0.5685
      4 C88        26.7820   21.7270   34.7830 C.3       1 AXI         0.0820
      5 C23        25.2920   23.0320   38.0660 C.ar      1 AXI        -0.1068
      6 C22        26.4560   22.9970   38.8890 C.ar      1 AXI        -0.1058
      7 C21        26.4090   23.2000   40.2910 C.ar      1 AXI        -0.1220
      8 C20        25.1560   23.4620   40.8850 C.ar      1 AXI        -0.1092
      9 C18        24.0180   23.2980   38.6740 C.ar      1 AXI         0.0069
     10 C19        23.9820   23.4920   40.0940 C.ar      1 AXI        -0.1392
     11 S24        22.5100   23.3470   37.7880 S.3       1 AXI        -0.0680
     12 C07        21.4890   24.5480   38.5260 C.ar      1 AXI        -0.0139
     13 C08        20.1230   24.2590   38.7960 C.ar      1 AXI        -0.0864
     14 C09        19.2570   25.2390   39.3920 C.ar      1 AXI        -0.0956
     15 C12        22.0200   25.8320   38.8650 C.ar      1 AXI        -0.0737
     16 C11        21.1780   26.7750   39.4500 C.ar      1 AXI         0.0439
     17 N15        21.4300   28.0760   39.8550 N.pl3     1 AXI        -0.3344
     18 N14        20.3390   28.5970   40.3060 N.ar      1 AXI        -0.3521
     19 C13        19.3710   27.7550   40.2740 C.ar      1 AXI         0.2876
     20 C10        19.8440   26.5040   39.7110 C.ar      1 AXI        -0.1580
     21 C16        18.0180   28.1340   40.7130 C.2       1 AXI         0.0018
     22 C17        16.8850   27.3250   40.8080 C.2       1 AXI        -0.2688
     23 C02        15.5470   27.8250   41.2730 C.cat     1 AXI         0.2375
     24 N03        14.5760   26.8900   41.3370 N.pl3     1 AXI        -0.4796
     25 C04        13.3190   27.2230   41.7450 C.ar      1 AXI         0.0834
     26 C05        13.0020   28.5450   42.1030 C.ar      1 AXI        -0.1570
     27 C06        14.0040   29.5300   42.0410 C.ar      1 AXI        -0.0017
     28 C01        15.3120   29.1790   41.6160 C.ar      1 AXI        -0.1736
     29 H82        26.8973   21.3104   36.9654 H         1 AXI         0.3161
     30 H881       27.5497   20.9428   34.7077 H         1 AXI         0.0478
     31 H882       27.1794   22.6693   34.3778 H         1 AXI         0.0478
     32 H883       25.8933   21.4266   34.2085 H         1 AXI         0.0478
     33 H22        27.4130   22.8080   38.4250 H         1 AXI         0.1466
     34 H21        27.3080   23.1550   40.8880 H         1 AXI         0.1448
     35 H20        25.0920   23.6410   41.9480 H         1 AXI         0.1391
     36 H19        23.0310   23.6660   40.5750 H         1 AXI         0.1359
     37 H08        19.7290   23.2840   38.5480 H         1 AXI         0.1678
     38 H12        23.0560   26.0660   38.6710 H         1 AXI         0.1654
     39 H09        18.2160   25.0310   39.5890 H         1 AXI         0.1410
     40 H16        17.9585   29.1980   40.9858 H         1 AXI         0.1399
     41 H17        16.9444   26.2611   40.5348 H         1 AXI         0.1774
     42 H01        16.0990   29.9170   41.5560 H         1 AXI         0.1896
     43 H04        12.5560   26.4610   41.7940 H         1 AXI         0.2047
     44 H05        12.0020   28.8010   42.4210 H         1 AXI         0.1966
     45 H06        13.7790   30.5500   42.3160 H         1 AXI         0.1873
     46 H46        22.4425   28.4953   39.7599 H         1 AXI         0.5023
     47 H47        14.7959   25.8488   41.0586 H         1 AXI         0.4922
@<TRIPOS>BOND
     1    1    2 2
     2    2    3 am
     3    2    5 1
     4    3    4 1
     5    3   29 1
     6    4   30 1
     7    4   31 1
     8    4   32 1
     9    5    6 ar
    10    5    9 ar
    11    6    7 ar
    12    6   33 1
    13    7    8 ar
    14    7   34 1
    15    8   10 ar
    16    8   35 1
    17    9   10 ar
    18    9   11 1
    19   10   36 1
    20   11   12 1
    21   12   13 ar
    22   12   15 ar
    23   13   14 ar
    24   13   37 1
    25   14   20 ar
    26   14   39 1
    27   15   16 ar
    28   15   38 1
    29   16   17 ar
    30   16   20 ar
    31   17   18 ar
    32   17   46 1
    33   18   19 ar
    34   19   20 ar
    35   19   21 1
    36   21   22 2
    37   21   40 1
    38   22   23 1
    39   22   41 1
    40   23   24 ar
    41   23   28 ar
    42   24   25 ar
    43   24   47 1
    44   25   26 ar
    45   25   43 1
    46   26   27 ar
    47   26   44 1
    48   27   28 ar
    49   27   45 1
    50   28   42 1
@<TRIPOS>SUBSTRUCTURE
     1 AXI         1 GROUP   0 A     ****
