@<TRIPOS>MOLECULE
AXI
   46    49     1     0     0
SMALL
NO_CHARGES

@<TRIPOS>ATOM
      1  O81       24.8310   23.4700   35.7940 O.2       1 AXI         0.0000
      2  C80       25.4990   22.8060   36.6100 C.2       1 AXI         0.0000
      3  N82       26.4150   21.9160   36.1840 N.am      1 AXI         0.0000
      4  C88       26.7820   21.7270   34.7830 C.3       1 AXI         0.0000
      5  C23       25.2920   23.0320   38.0660 C.ar      1 AXI         0.0000
      6  C22       26.4560   22.9970   38.8890 C.ar      1 AXI         0.0000
      7  C21       26.4090   23.2000   40.2910 C.ar      1 AXI         0.0000
      8  C20       25.1560   23.4620   40.8850 C.ar      1 AXI         0.0000
      9  C18       24.0180   23.2980   38.6740 C.ar      1 AXI         0.0000
     10  C19       23.9820   23.4920   40.0940 C.ar      1 AXI         0.0000
     11  S24       22.5100   23.3470   37.7880 S.3       1 AXI         0.0000
     12  C07       21.4890   24.5480   38.5260 C.ar      1 AXI         0.0000
     13  C08       20.1230   24.2590   38.7960 C.ar      1 AXI         0.0000
     14  C09       19.2570   25.2390   39.3920 C.ar      1 AXI         0.0000
     15  C12       22.0200   25.8320   38.8650 C.ar      1 AXI         0.0000
     16  C11       21.1780   26.7750   39.4500 C.ar      1 AXI         0.0000
     17  N15       21.4300   28.0760   39.8550 N.ar      1 AXI         0.0000
     18  N14       20.3390   28.5970   40.3060 N.pl3     1 AXI         0.0000
     19  C13       19.3710   27.7550   40.2740 C.ar      1 AXI         0.0000
     20  C10       19.8440   26.5040   39.7110 C.ar      1 AXI         0.0000
     21  C16       18.0180   28.1340   40.7130 C.2       1 AXI         0.0000
     22  C17       16.8850   27.3250   40.8080 C.2       1 AXI         0.0000
     23  C02       15.5470   27.8250   41.2730 C.ar      1 AXI         0.0000
     24  N03       14.5760   26.8900   41.3370 N.ar      1 AXI         0.0000
     25  C04       13.3190   27.2230   41.7450 C.ar      1 AXI         0.0000
     26  C05       13.0020   28.5450   42.1030 C.ar      1 AXI         0.0000
     27  C06       14.0040   29.5300   42.0410 C.ar      1 AXI         0.0000
     28  C01       15.3120   29.1790   41.6160 C.ar      1 AXI         0.0000
     29  H82       26.8720   21.3490   36.8690 H         1 AXI         0.0000
     30 H881       27.5500   20.9430   34.7070 H         1 AXI         0.0000
     31 H882       25.8930   21.4270   34.2090 H         1 AXI         0.0000
     32 H883       27.1790   22.6690   34.3780 H         1 AXI         0.0000
     33  H22       27.4130   22.8080   38.4250 H         1 AXI         0.0000
     34  H21       27.3080   23.1550   40.8880 H         1 AXI         0.0000
     35  H20       25.0920   23.6410   41.9480 H         1 AXI         0.0000
     36  H19       23.0310   23.6660   40.5750 H         1 AXI         0.0000
     37  H08       19.7290   23.2840   38.5480 H         1 AXI         0.0000
     38  H12       23.0560   26.0660   38.6710 H         1 AXI         0.0000
     39  H09       18.2160   25.0310   39.5890 H         1 AXI         0.0000
     40  H14       20.2580   29.5370   40.6380 H         1 AXI         0.0000
     41  H16       17.8860   29.1680   40.9970 H         1 AXI         0.0000
     42  H17       16.9750   26.2850   40.5330 H         1 AXI         0.0000
     43  H01       16.0990   29.9170   41.5560 H         1 AXI         0.0000
     44  H04       12.5560   26.4610   41.7940 H         1 AXI         0.0000
     45  H05       12.0020   28.8010   42.4210 H         1 AXI         0.0000
     46  H06       13.7790   30.5500   42.3160 H         1 AXI         0.0000
@<TRIPOS>BOND
     1    1    2 2
     2    2    3 am
     3    2    5 1
     4    3    4 1
     5    3   29 1
     6    4   30 1
     7    4   31 1
     8    4   32 1
     9    5    6 ar
    10    5    9 ar
    11    6    7 ar
    12    6   33 1
    13    7    8 ar
    14    7   34 1
    15    8   10 ar
    16    8   35 1
    17    9   10 ar
    18    9   11 1
    19   10   36 1
    20   11   12 1
    21   12   13 ar
    22   12   15 ar
    23   13   14 ar
    24   13   37 1
    25   14   20 ar
    26   14   39 1
    27   15   16 ar
    28   15   38 1
    29   16   17 ar
    30   16   20 ar
    31   17   18 ar
    32   18   19 ar
    33   18   40 1
    34   19   20 ar
    35   19   21 1
    36   21   22 2
    37   21   41 1
    38   22   23 1
    39   22   42 1
    40   23   24 ar
    41   23   28 ar
    42   24   25 ar
    43   25   26 ar
    44   25   44 1
    45   26   27 ar
    46   26   45 1
    47   27   28 ar
    48   27   46 1
    49   28   43 1
@<TRIPOS>SUBSTRUCTURE
     1 AXI         1 GROUP 0 A     ****
